REMARK  Name = ZINC00038831
REMARK                            x       y       z     vdW  Elec       q    Type
REMARK                         _______ _______ _______ _____ _____    ______ ____
ROOT
ATOM      1  N   LIG    1       -1.281   1.712  -0.476  0.00  0.00    -0.281 N 
ATOM      2  H   LIG    1       -0.468   1.345  -0.857  0.00  0.00    +0.155 HD
ATOM      3  C   LIG    1       -1.224   2.812   0.301  0.00  0.00    +0.250 C 
ATOM      4  O   LIG    1       -2.228   3.217   0.855  0.00  0.00    -0.270 OA
ENDROOT
BRANCH   1   8
ATOM      5  C   LIG    1       -4.951  -0.114  -1.242  0.00  0.00    +0.030 A 
ATOM      6  C   LIG    1       -4.880   1.265  -1.086  0.00  0.00    +0.025 A 
ATOM      7  C   LIG    1       -3.665   1.869  -0.832  0.00  0.00    +0.025 A 
ATOM      8  C   LIG    1       -2.514   1.099  -0.733  0.00  0.00    +0.034 A 
ATOM      9  C   LIG    1       -2.584  -0.279  -0.894  0.00  0.00    +0.025 A 
ATOM     10  C   LIG    1       -3.800  -0.884  -1.142  0.00  0.00    +0.025 A 
BRANCH   5  11
ATOM     11  N   LIG    1       -6.182  -0.726  -1.498  0.00  0.00    -0.330 N 
BRANCH  11  13
ATOM     12  C   LIG    1       -6.504  -2.835  -0.302  0.00  0.00    +0.024 C 
ATOM     13  C   LIG    1       -6.257  -2.180  -1.662  0.00  0.00    +0.102 C 
ENDBRANCH  11  13
BRANCH  11  14
ATOM     14  C   LIG    1       -7.397   0.086  -1.602  0.00  0.00    +0.102 C 
ATOM     15  C   LIG    1       -7.599   0.518  -3.056  0.00  0.00    +0.024 C 
ENDBRANCH  11  14
ENDBRANCH   5  11
ENDBRANCH   1   8
BRANCH   3  16
ATOM     16  C   LIG    1        0.059   3.522   0.484  0.00  0.00    +0.067 A 
ATOM     17  C   LIG    1        0.778   3.969  -0.626  0.00  0.00    +0.015 A 
ATOM     18  C   LIG    1        1.972   4.636  -0.448  0.00  0.00    +0.001 A 
ATOM     19  C   LIG    1        2.463   4.853   0.828  0.00  0.00    +0.002 A 
ATOM     20  C   LIG    1        1.759   4.408   1.932  0.00  0.00    +0.033 A 
ATOM     21  C   LIG    1        0.560   3.744   1.768  0.00  0.00    +0.134 A 
BRANCH  21  22
ATOM     22  N   LIG    1       -0.192   3.268   2.950  0.00  0.00    +0.007 N 
ATOM     23  O   LIG    1        0.182   3.566   4.071  0.00  0.00    -0.130 OA
BRANCH  22  24
ATOM     24  O   LIG    1       -1.185   2.578   2.804  0.00  0.00    -0.396 OA
ATOM     25  H   LIG    1       -1.473   2.349   1.942  0.00  0.00    +0.329 HD
ENDBRANCH  22  24
ENDBRANCH  21  22
ENDBRANCH   3  16
TORSDOF 7
