REMARK  Name = ZINC00005852
REMARK                            x       y       z     vdW  Elec       q    Type
REMARK                         _______ _______ _______ _____ _____    ______ ____
ROOT
ATOM      1  C   LIG    1        0.002  -0.004   0.002  0.00  0.00    +0.050 A 
ATOM      2  C   LIG    1       -0.003  -0.874  -1.178  0.00  0.00    +0.016 A 
ATOM      3  C   LIG    1       -0.026  -0.627  -2.554  0.00  0.00    +0.031 A 
ATOM      4  C   LIG    1       -0.025  -1.674  -3.432  0.00  0.00    +0.042 A 
ATOM      5 CL   LIG    1       -0.054  -1.366  -5.140  0.00  0.00    -0.084 Cl
ATOM      6  C   LIG    1        0.000  -2.983  -2.967  0.00  0.00    +0.022 A 
ATOM      7  C   LIG    1        0.032  -3.249  -1.617  0.00  0.00    +0.027 A 
ATOM      8  C   LIG    1        0.026  -2.197  -0.703  0.00  0.00    +0.048 A 
ATOM      9  N   LIG    1        0.037  -2.155   0.673  0.00  0.00    -0.350 N 
ATOM     10  H   LIG    1        0.053  -2.932   1.254  0.00  0.00    +0.166 HD
ATOM     11  C   LIG    1        0.023  -0.835   1.105  0.00  0.00    +0.116 A 
ENDROOT
BRANCH  11  12
ATOM     12  C   LIG    1        0.030  -0.410   2.457  0.00  0.00    +0.259 C 
ATOM     13  N   LIG    1        0.052  -1.322   3.449  0.00  0.00    -0.324 N 
ATOM     14  H   LIG    1        0.057  -1.031   4.375  0.00  0.00    +0.145 HD
ATOM     15  H   LIG    1        0.062  -2.268   3.238  0.00  0.00    +0.145 HD
ATOM     16  O   LIG    1        0.017   0.778   2.722  0.00  0.00    -0.269 OA
ENDBRANCH  11  12
BRANCH   1  17
ATOM     17  S   LIG    1       -0.022   1.758   0.012  0.00  0.00    -0.087 S 
BRANCH  17  21
ATOM     18  C   LIG    1        4.427   2.605  -0.026  0.00  0.00    +0.000 A 
ATOM     19  C   LIG    1        3.526   3.653  -0.012  0.00  0.00    +0.001 A 
ATOM     20  C   LIG    1        2.168   3.399  -0.000  0.00  0.00    +0.015 A 
ATOM     21  C   LIG    1        1.709   2.087  -0.003  0.00  0.00    +0.013 A 
ATOM     22  C   LIG    1        2.618   1.036  -0.012  0.00  0.00    +0.015 A 
ATOM     23  C   LIG    1        3.974   1.298  -0.029  0.00  0.00    +0.001 A 
ENDBRANCH  17  21
ENDBRANCH   1  17
TORSDOF 3
