REMARK  Name = ZINC00004888
REMARK                            x       y       z     vdW  Elec       q    Type
REMARK                         _______ _______ _______ _____ _____    ______ ____
ROOT
ATOM      1  C   LIG    1       -0.743   1.588  -1.240  0.00  0.00    +0.006 C 
ATOM      2  C   LIG    1       -0.013   1.086   0.008  0.00  0.00    -0.080 C 
ATOM      3  N   LIG    1       -0.693   1.549   1.230  0.00  0.00    +0.387 N 
ATOM      4  H   LIG    1       -1.630   1.132   1.276  0.00  0.00    -0.085 HD
ATOM      5  H   LIG    1       -0.149   1.261   2.051  0.00  0.00    -0.085 HD
ATOM      6  C   LIG    1       -0.815   3.028   1.217  0.00  0.00    +0.020 C 
ATOM      7  C   LIG    1       -1.827   3.370   0.085  0.00  0.00    +0.018 C 
ATOM      8  C   LIG    1        0.487   3.588   0.664  0.00  0.00    +0.224 C 
ATOM      9  O   LIG    1        1.444   3.926   1.327  0.00  0.00    -0.275 OA
ATOM     10  N   LIG    1        0.407   3.649  -0.681  0.00  0.00    -0.182 N 
ATOM     11  C   LIG    1       -0.896   3.119  -1.136  0.00  0.00    +0.102 C 
ENDROOT
BRANCH  10  12
ATOM     12  O   LIG    1        1.423   4.146  -1.532  0.00  0.00    -0.292 OA
ATOM     13  H   LIG    1        2.212   4.453  -1.065  0.00  0.00    +0.242 HD
ENDBRANCH  10  12
TORSDOF 1
