REMARK  Name = ZINC00056465
REMARK                            x       y       z     vdW  Elec       q    Type
REMARK                         _______ _______ _______ _____ _____    ______ ____
ROOT
ATOM      1  C   LIG    1       -0.020   1.378   0.203  0.00  0.00    +0.025 A 
ATOM      2  C   LIG    1        1.164   2.088   0.210  0.00  0.00    +0.030 A 
ATOM      3  C   LIG    1        2.368   1.431   0.030  0.00  0.00    +0.105 A 
ATOM      4  C   LIG    1        2.390   0.061  -0.157  0.00  0.00    +0.030 A 
ATOM      5  C   LIG    1        1.209  -0.655  -0.165  0.00  0.00    +0.025 A 
ATOM      6  C   LIG    1       -0.001   0.002   0.016  0.00  0.00    +0.032 A 
ENDROOT
BRANCH   3   7
ATOM      7  S   LIG    1        3.876   2.342   0.038  0.00  0.00    +0.056 S 
ATOM      8  O   LIG    1        3.546   3.678  -0.314  0.00  0.00    -0.153 OA
ATOM      9  O   LIG    1        4.819   1.572  -0.695  0.00  0.00    -0.153 OA
BRANCH   7  10
ATOM     10  N   LIG    1        4.414   2.384   1.604  0.00  0.00    -0.204 NA
ATOM     11  H   LIG    1        5.240   2.844   1.821  0.00  0.00    +0.144 HD
ATOM     12  H   LIG    1        3.903   1.948   2.304  0.00  0.00    +0.144 HD
ENDBRANCH   7  10
ENDBRANCH   3   7
BRANCH   6  13
ATOM     13  N   LIG    1       -1.198  -0.721   0.010  0.00  0.00    -0.299 N 
ATOM     14  H   LIG    1       -1.218  -1.629   0.351  0.00  0.00    +0.154 HD
BRANCH  13  15
ATOM     15  C   LIG    1       -2.356  -0.140  -0.483  0.00  0.00    +0.128 A 
ATOM     16  C   LIG    1       -3.580  -0.805  -0.385  0.00  0.00    +0.063 A 
ATOM     17  C   LIG    1       -4.708  -0.188  -0.890  0.00  0.00    +0.118 A 
ATOM     18  N   LIG    1       -4.597   1.009  -1.448  0.00  0.00    -0.223 NA
ATOM     19  C   LIG    1       -3.423   1.617  -1.527  0.00  0.00    +0.214 A 
ATOM     20  N   LIG    1       -2.319   1.062  -1.050  0.00  0.00    -0.200 NA
BRANCH  19  21
ATOM     21  N   LIG    1       -3.349   2.866  -2.118  0.00  0.00    -0.327 N 
ATOM     22  H   LIG    1       -2.495   3.323  -2.182  0.00  0.00    +0.145 HD
ATOM     23  H   LIG    1       -4.150   3.286  -2.467  0.00  0.00    +0.145 HD
ENDBRANCH  19  21
ENDBRANCH  13  15
ENDBRANCH   6  13
TORSDOF 5
