REMARK  Name = ZINC00039112
REMARK                            x       y       z     vdW  Elec       q    Type
REMARK                         _______ _______ _______ _____ _____    ______ ____
ROOT
ATOM      1  C   LIG    1       -0.017   1.381   0.010  0.00  0.00    +0.056 A 
ATOM      2  C   LIG    1        1.171   2.089   0.002  0.00  0.00    -0.004 A 
ATOM      3  C   LIG    1        2.382   1.415  -0.013  0.00  0.00    +0.124 A 
ATOM      4  C   LIG    1        2.405   0.029  -0.021  0.00  0.00    +0.094 A 
ATOM      5  C   LIG    1        1.217  -0.683  -0.013  0.00  0.00    +0.162 A 
ATOM      6  C   LIG    1        0.002  -0.004   0.002  0.00  0.00    +0.159 A 
ENDROOT
BRANCH   3   7
ATOM      7  O   LIG    1        3.549   2.115  -0.022  0.00  0.00    -0.506 OA
ATOM      8  H   LIG    1        3.895   2.312   0.859  0.00  0.00    +0.292 HD
ENDBRANCH   3   7
BRANCH   5   9
ATOM      9  O   LIG    1        1.237  -2.042  -0.021  0.00  0.00    -0.503 OA
ATOM     10  H   LIG    1        1.252  -2.441   0.860  0.00  0.00    +0.292 HD
ENDBRANCH   5   9
BRANCH   6  11
ATOM     11  O   LIG    1       -1.167  -0.701   0.010  0.00  0.00    -0.503 OA
ATOM     12  H   LIG    1       -1.513  -0.897  -0.871  0.00  0.00    +0.292 HD
ENDBRANCH   6  11
BRANCH   2  13
ATOM     13  C   LIG    1        1.148   3.596   0.010  0.00  0.00    +0.019 C 
BRANCH  13  14
ATOM     14  C   LIG    1        1.252   4.116  -1.425  0.00  0.00    -0.082 C 
BRANCH  14  15
ATOM     15  N   LIG    1        1.229   5.585  -1.417  0.00  0.00    +0.378 N 
ATOM     16  H   LIG    1        0.366   5.905  -1.005  0.00  0.00    -0.090 HD
ATOM     17  H   LIG    1        1.298   5.927  -2.364  0.00  0.00    -0.090 HD
ATOM     18  H   LIG    1        2.009   5.930  -0.877  0.00  0.00    -0.090 HD
ENDBRANCH  14  15
ENDBRANCH  13  14
ENDBRANCH   2  13
TORSDOF 6
