REMARK  Name = ZINC00005895
REMARK                            x       y       z     vdW  Elec       q    Type
REMARK                         _______ _______ _______ _____ _____    ______ ____
ROOT
ATOM      1  C   LIG    1        0.658  -0.603   3.669  0.00  0.00    -0.024 A 
ATOM      2  C   LIG    1        0.437  -1.759   4.313  0.00  0.00    +0.087 A 
ATOM      3  N   LIG    1        1.291  -1.871   5.377  0.00  0.00    -0.360 N 
ATOM      4  C   LIG    1        2.103  -0.761   5.444  0.00  0.00    +0.047 A 
ATOM      5  C   LIG    1        3.121  -0.370   6.307  0.00  0.00    +0.026 A 
ATOM      6  C   LIG    1        3.774   0.825   6.098  0.00  0.00    +0.007 A 
ATOM      7  C   LIG    1        3.415   1.652   5.043  0.00  0.00    -0.025 A 
ATOM      8  C   LIG    1        2.414   1.290   4.186  0.00  0.00    +0.015 A 
ATOM      9  H   LIG    1        1.320  -2.621   5.991  0.00  0.00    +0.165 HD
ATOM     10  C   LIG    1        1.746   0.079   4.373  0.00  0.00    +0.003 A 
ENDROOT
BRANCH   1  11
ATOM     11  C   LIG    1       -0.071  -0.103   2.448  0.00  0.00    +0.018 C 
BRANCH  11  12
ATOM     12  C   LIG    1        0.713  -0.491   1.192  0.00  0.00    -0.075 C 
BRANCH  12  14
ATOM     13  C   LIG    1       -0.018   1.465   0.010  0.00  0.00    -0.097 C 
ATOM     14  N   LIG    1        0.002  -0.004   0.002  0.00  0.00    +0.376 N 
ATOM     15  H   LIG    1       -0.945  -0.353   0.009  0.00  0.00    -0.083 HD
ATOM     16  C   LIG    1        0.690  -0.478  -1.207  0.00  0.00    -0.097 C 
ENDBRANCH  12  14
ENDBRANCH  11  12
ENDBRANCH   1  11
BRANCH   7  17
ATOM     17  C   LIG    1        4.136   2.960   4.841  0.00  0.00    +0.180 C 
BRANCH  17  18
ATOM     18  N   LIG    1        3.448   4.018   5.585  0.00  0.00    -0.248 N 
ATOM     19  C   LIG    1        3.989   4.845   6.495  0.00  0.00    +0.219 A 
ATOM     20  N   LIG    1        3.048   5.644   6.928  0.00  0.00    -0.223 NA
ATOM     21  C   LIG    1        1.897   5.358   6.319  0.00  0.00    +0.245 A 
ATOM     22  N   LIG    1        2.093   4.372   5.484  0.00  0.00    -0.158 NA
ENDBRANCH  17  18
ENDBRANCH   7  17
TORSDOF 5
