REMARK  Name = ZINC00015333
REMARK                            x       y       z     vdW  Elec       q    Type
REMARK                         _______ _______ _______ _____ _____    ______ ____
ROOT
ATOM      1  C   LIG    1        0.191   1.251   0.236  0.00  0.00    +0.012 A 
ATOM      2  C   LIG    1        1.425   1.823   0.449  0.00  0.00    +0.050 A 
ATOM      3  C   LIG    1        2.539   1.021   0.663  0.00  0.00    +0.158 A 
ATOM      4  C   LIG    1        2.415  -0.369   0.664  0.00  0.00    +0.159 A 
ATOM      5  C   LIG    1        1.183  -0.952   0.452  0.00  0.00    +0.057 A 
ATOM      6  C   LIG    1        0.057  -0.144   0.236  0.00  0.00    -0.020 A 
ENDROOT
BRANCH   3   7
ATOM      7  O   LIG    1        3.753   1.591   0.871  0.00  0.00    -0.503 OA
ATOM      8  H   LIG    1        3.949   1.772   1.801  0.00  0.00    +0.292 HD
ENDBRANCH   3   7
BRANCH   4   9
ATOM      9  O   LIG    1        3.509  -1.149   0.875  0.00  0.00    -0.503 OA
ATOM     10  H   LIG    1        3.668  -1.360   1.805  0.00  0.00    +0.292 HD
ENDBRANCH   4   9
BRANCH   6  11
ATOM     11  C   LIG    1       -1.254  -0.756   0.011  0.00  0.00    +0.032 C 
ATOM     12  C   LIG    1       -1.351  -1.945  -0.679  0.00  0.00    +0.114 C 
BRANCH  12  13
ATOM     13  C   LIG    1       -2.642  -2.645  -0.763  0.00  0.00    +0.252 C 
ATOM     14  N   LIG    1       -2.736  -3.808  -1.438  0.00  0.00    -0.325 N 
ATOM     15  H   LIG    1       -3.588  -4.269  -1.492  0.00  0.00    +0.145 HD
ATOM     16  H   LIG    1       -1.952  -4.183  -1.868  0.00  0.00    +0.145 HD
ATOM     17  O   LIG    1       -3.625  -2.174  -0.223  0.00  0.00    -0.270 OA
ENDBRANCH  12  13
BRANCH  12  18
ATOM     18  C   LIG    1       -0.194  -2.499  -1.315  0.00  0.00    +0.104 C 
ATOM     19  N   LIG    1        0.724  -2.939  -1.820  0.00  0.00    -0.191 NA
ENDBRANCH  12  18
ENDBRANCH   6  11
TORSDOF 5
