REMARK  Name = ZINC00001382
REMARK                            x       y       z     vdW  Elec       q    Type
REMARK                         _______ _______ _______ _____ _____    ______ ____
ROOT
ATOM      1  C   LIG    1       -1.464  -0.300  -2.660  0.00  0.00    +0.042 A 
ATOM      2  C   LIG    1       -2.070   0.352  -1.581  0.00  0.00    +0.017 A 
ATOM      3  C   LIG    1       -3.410   0.664  -1.632  0.00  0.00    +0.048 A 
ATOM      4  C   LIG    1       -4.162   0.332  -2.754  0.00  0.00    +0.141 A 
ATOM      5  C   LIG    1       -3.565  -0.316  -3.829  0.00  0.00    +0.101 A 
ATOM      6 CL   LIG    1       -4.510  -0.728  -5.226  0.00  0.00    -0.078 Cl
ATOM      7  C   LIG    1       -2.222  -0.627  -3.790  0.00  0.00    +0.074 A 
ATOM      8 CL   LIG    1       -1.475  -1.430  -5.136  0.00  0.00    -0.081 Cl
ENDROOT
BRANCH   1   9
ATOM      9  C   LIG    1       -0.029  -0.636  -2.609  0.00  0.00    +0.190 C 
ATOM     10  O   LIG    1        0.806   0.232  -2.780  0.00  0.00    -0.287 OA
BRANCH   9  11
ATOM     11  C   LIG    1        0.393  -2.021  -2.352  0.00  0.00    -0.007 C 
ATOM     12  C   LIG    1        1.688  -2.313  -2.243  0.00  0.00    +0.016 C 
BRANCH  11  14
ATOM     13  C   LIG    1       -1.145  -3.149  -0.767  0.00  0.00    +0.009 C 
ATOM     14  C   LIG    1       -0.639  -3.110  -2.211  0.00  0.00    +0.035 C 
ENDBRANCH  11  14
ENDBRANCH   9  11
ENDBRANCH   1   9
BRANCH   4  15
ATOM     15  O   LIG    1       -5.482   0.642  -2.799  0.00  0.00    -0.479 OA
BRANCH  15  16
ATOM     16  C   LIG    1       -6.032   1.308  -1.660  0.00  0.00    +0.349 C 
BRANCH  16  17
ATOM     17  C   LIG    1       -7.498   1.569  -1.889  0.00  0.00    +0.343 C 
ATOM     18  O   LIG    1       -8.024   1.217  -2.931  0.00  0.00    -0.247 OA
BRANCH  17  19
ATOM     19  O   LIG    1       -8.158   2.131  -1.032  0.00  0.00    -0.478 OA
ATOM     20  H   LIG    1       -7.754   2.402  -0.231  0.00  0.00    +0.295 HD
ENDBRANCH  17  19
ENDBRANCH  16  17
ENDBRANCH  15  16
ENDBRANCH   4  15
TORSDOF 7
