REMARK  Name = ZINC00002433
REMARK                            x       y       z     vdW  Elec       q    Type
REMARK                         _______ _______ _______ _____ _____    ______ ____
ROOT
ATOM      1  C   LIG    1       -0.018   1.465   0.010  0.00  0.00    -0.096 C 
ATOM      2  N   LIG    1        0.002  -0.004   0.002  0.00  0.00    +0.380 N 
ATOM      3  H   LIG    1        0.419  -0.322  -0.860  0.00  0.00    -0.082 HD
ATOM      4  C   LIG    1       -1.375  -0.500   0.074  0.00  0.00    -0.078 C 
ATOM      5  C   LIG    1       -1.370  -2.033   0.071  0.00  0.00    -0.007 C 
ATOM      6  C   LIG    1       -0.594  -2.499   1.312  0.00  0.00    -0.004 C 
ATOM      7  C   LIG    1       -0.609  -4.020   1.396  0.00  0.00    +0.012 C 
ATOM      8  C   LIG    1        0.027  -4.604   0.131  0.00  0.00    +0.001 C 
ATOM      9  C   LIG    1        1.465  -4.100  -0.002  0.00  0.00    +0.000 C 
ATOM     10  C   LIG    1        1.472  -2.572  -0.083  0.00  0.00    +0.003 C 
ATOM     11  C   LIG    1       -1.239  -1.882   2.524  0.00  0.00    -0.034 A 
ATOM     12  C   LIG    1       -2.294  -2.552   3.121  0.00  0.00    +0.049 A 
ATOM     13  C   LIG    1       -2.929  -2.013   4.229  0.00  0.00    +0.117 A 
ATOM     14  C   LIG    1       -2.502  -0.795   4.738  0.00  0.00    +0.045 A 
ATOM     15  C   LIG    1       -1.447  -0.136   4.144  0.00  0.00    +0.007 A 
ATOM     16  C   LIG    1       -0.805  -0.677   3.036  0.00  0.00    -0.045 A 
ATOM     17  C   LIG    1        0.348   0.093   2.452  0.00  0.00    +0.020 C 
ATOM     18  C   LIG    1        0.848  -1.998   1.190  0.00  0.00    -0.014 C 
ATOM     19  C   LIG    1        0.809  -0.473   1.119  0.00  0.00    -0.061 C 
ENDROOT
BRANCH  13  20
ATOM     20  O   LIG    1       -3.964  -2.673   4.812  0.00  0.00    -0.507 OA
ATOM     21  H   LIG    1       -3.696  -3.285   5.511  0.00  0.00    +0.292 HD
ENDBRANCH  13  20
TORSDOF 1
