REMARK  Name = ZINC00037183
REMARK                            x       y       z     vdW  Elec       q    Type
REMARK                         _______ _______ _______ _____ _____    ______ ____
ROOT
ATOM      1  C   LIG    1        2.418   3.937   0.000  0.00  0.00    +0.279 C 
ATOM      2  N   LIG    1        2.396   5.282  -0.095  0.00  0.00    -0.201 N 
ATOM      3  C   LIG    1        3.481   6.097  -0.209  0.00  0.00    +0.150 A 
ATOM      4  C   LIG    1        3.031   7.369  -0.276  0.00  0.00    +0.159 A 
ATOM      5  C   LIG    1        1.631   7.337  -0.202  0.00  0.00    +0.167 A 
ATOM      6  N   LIG    1        1.252   6.090  -0.100  0.00  0.00    -0.170 NA
ATOM      7  O   LIG    1        3.479   3.352   0.079  0.00  0.00    -0.265 OA
ENDROOT
BRANCH   1  11
ATOM      8  C   LIG    1       -1.221   1.750   0.018  0.00  0.00    +0.000 A 
ATOM      9  C   LIG    1       -0.013   1.076  -0.024  0.00  0.00    +0.001 A 
ATOM     10  C   LIG    1        1.173   1.781  -0.032  0.00  0.00    +0.013 A 
ATOM     11  C   LIG    1        1.153   3.177   0.008  0.00  0.00    +0.041 A 
ATOM     12  C   LIG    1       -0.070   3.850   0.055  0.00  0.00    +0.013 A 
ATOM     13  C   LIG    1       -1.249   3.133   0.063  0.00  0.00    +0.001 A 
ENDBRANCH   1  11
BRANCH   4  14
ATOM     14  N   LIG    1        3.868   8.582  -0.405  0.00  0.00    +0.009 N 
ATOM     15  O   LIG    1        5.080   8.483  -0.460  0.00  0.00    -0.130 OA
BRANCH  14  16
ATOM     16  O   LIG    1        3.344   9.681  -0.457  0.00  0.00    -0.396 OA
ATOM     17  H   LIG    1        2.411   9.757  -0.415  0.00  0.00    +0.329 HD
ENDBRANCH  14  16
ENDBRANCH   4  14
TORSDOF 3
