REMARK  Name = ZINC00022992
REMARK                            x       y       z     vdW  Elec       q    Type
REMARK                         _______ _______ _______ _____ _____    ______ ____
ROOT
ATOM      1  C   LIG    1       -1.050   5.106   0.038  0.00  0.00    -0.011 A 
ATOM      2  C   LIG    1       -0.166   6.193   0.035  0.00  0.00    +0.011 A 
ATOM      3  C   LIG    1       -0.637   7.473   0.045  0.00  0.00    +0.027 A 
ATOM      4  C   LIG    1       -2.008   7.716   0.059  0.00  0.00    +0.047 A 
ATOM      5  C   LIG    1       -2.907   6.633   0.062  0.00  0.00    +0.003 A 
ATOM      6  C   LIG    1       -4.249   7.220   0.078  0.00  0.00    -0.024 A 
ATOM      7  C   LIG    1       -4.094   8.553   0.082  0.00  0.00    +0.087 A 
ATOM      8  N   LIG    1       -2.763   8.868   0.071  0.00  0.00    -0.360 N 
ATOM      9  H   LIG    1       -2.404   9.770   0.071  0.00  0.00    +0.165 HD
ATOM     10  C   LIG    1       -2.422   5.325   0.046  0.00  0.00    +0.019 A 
ENDROOT
BRANCH   1  13
ATOM     11  C   LIG    1        1.031   1.943   0.003  0.00  0.00    +0.008 A 
ATOM     12  C   LIG    1        0.778   3.298   0.012  0.00  0.00    +0.016 A 
ATOM     13  C   LIG    1       -0.522   3.725   0.026  0.00  0.00    +0.019 A 
ATOM     14  S   LIG    1       -1.416   2.179   0.019  0.00  0.00    -0.097 S 
ATOM     15  C   LIG    1       -0.013   1.076   0.008  0.00  0.00    +0.046 A 
ENDBRANCH   1  13
BRANCH   6  16
ATOM     16  C   LIG    1       -5.556   6.469   0.086  0.00  0.00    +0.018 C 
BRANCH  16  17
ATOM     17  C   LIG    1       -5.922   6.099   1.525  0.00  0.00    -0.082 C 
BRANCH  17  18
ATOM     18  N   LIG    1       -7.189   5.348   1.520  0.00  0.00    +0.378 N 
ATOM     19  H   LIG    1       -7.066   4.481   0.983  0.00  0.00    -0.090 HD
ATOM     20  H   LIG    1       -7.924   5.904   1.087  0.00  0.00    -0.090 HD
ATOM     21  H   LIG    1       -7.460   5.112   2.473  0.00  0.00    -0.090 HD
ENDBRANCH  17  18
ENDBRANCH  16  17
ENDBRANCH   6  16
TORSDOF 4
