REMARK  Name = ZINC00001575
REMARK                            x       y       z     vdW  Elec       q    Type
REMARK                         _______ _______ _______ _____ _____    ______ ____
ROOT
ATOM      1  C   LIG    1       -1.293  -0.774   0.010  0.00  0.00    +0.030 C 
ENDROOT
BRANCH   1   8
ATOM      2  C   LIG    1       -0.017   1.378   0.010  0.00  0.00    +0.007 A 
ATOM      3  C   LIG    1        1.170   2.087   0.002  0.00  0.00    +0.047 A 
ATOM      4  C   LIG    1        2.380   1.410  -0.013  0.00  0.00    +0.130 A 
ATOM      5  C   LIG    1        2.397   0.022  -0.021  0.00  0.00    +0.055 A 
ATOM      6  I   LIG    1        4.223  -1.005  -0.044  0.00  0.00    -0.040 I 
ATOM      7  C   LIG    1        1.208  -0.682  -0.013  0.00  0.00    +0.021 A 
ATOM      8  C   LIG    1        0.002  -0.004   0.002  0.00  0.00    -0.047 A 
BRANCH   4   9
ATOM      9  O   LIG    1        3.548   2.105  -0.021  0.00  0.00    -0.506 OA
ATOM     10  H   LIG    1        3.895   2.301   0.860  0.00  0.00    +0.292 HD
ENDBRANCH   4   9
ENDBRANCH   1   8
BRANCH   1  11
ATOM     11  CA  LIG    1       -1.746  -1.027  -1.429  0.00  0.00    +0.040 C 
BRANCH  11  12
ATOM     12  N   LIG    1       -2.059   0.254  -2.076  0.00  0.00    +0.387 N 
ATOM     13  H1  LIG    1       -2.357   0.088  -3.026  0.00  0.00    -0.089 HD
ATOM     14  H2  LIG    1       -1.237   0.839  -2.080  0.00  0.00    -0.089 HD
ATOM     15  H3  LIG    1       -2.798   0.716  -1.568  0.00  0.00    -0.089 HD
ENDBRANCH  11  12
BRANCH  11  16
ATOM     16  C   LIG    1       -2.974  -1.901  -1.424  0.00  0.00    +0.290 C 
ATOM     17  O   LIG    1       -4.082  -1.394  -1.381  0.00  0.00    -0.253 OA
BRANCH  16  18
ATOM     18  OXT LIG    1       -2.859  -3.114  -1.463  0.00  0.00    -0.482 OA
ATOM     19  HXT LIG    1       -2.007  -3.503  -1.496  0.00  0.00    +0.295 HD
ENDBRANCH  16  18
ENDBRANCH  11  16
ENDBRANCH   1  11
TORSDOF 6
