REMARK  Name = ZINC00001795
REMARK                            x       y       z     vdW  Elec       q    Type
REMARK                         _______ _______ _______ _____ _____    ______ ____
ROOT
ATOM      1  C   LIG    1       -0.017   1.379   0.010  0.00  0.00    +0.020 A 
ATOM      2  C   LIG    1        1.180   2.073   0.002  0.00  0.00    +0.018 A 
ATOM      3  C   LIG    1        2.373   1.338  -0.013  0.00  0.00    +0.077 A 
ATOM      4  C   LIG    1        2.306  -0.057  -0.020  0.00  0.00    +0.125 A 
ATOM      5  N   LIG    1        1.141  -0.670  -0.013  0.00  0.00    -0.262 NA
ATOM      6  C   LIG    1        0.002  -0.004   0.002  0.00  0.00    +0.111 A 
ENDROOT
BRANCH   3   7
ATOM      7  C   LIG    1        3.679   2.026  -0.023  0.00  0.00    +0.338 C 
ATOM      8  O   LIG    1        3.725   3.248  -0.017  0.00  0.00    -0.245 OA
BRANCH   7   9
ATOM      9  O   LIG    1        4.713   1.375  -0.036  0.00  0.00    -0.477 OA
ATOM     10  H   LIG    1        4.677   0.438  -0.040  0.00  0.00    +0.295 HD
ENDBRANCH   7   9
ENDBRANCH   3   7
TORSDOF 2
