REMARK  Name = ZINC00040150
REMARK                            x       y       z     vdW  Elec       q    Type
REMARK                         _______ _______ _______ _____ _____    ______ ____
ROOT
ATOM      1  N   LIG    1       -0.956  -0.986   0.007  0.00  0.00    -0.288 N 
ATOM      2  C   LIG    1       -0.311  -2.187  -0.006  0.00  0.00    +0.203 A 
ATOM      3  N   LIG    1        0.977  -1.999  -0.017  0.00  0.00    -0.231 NA
ATOM      4  C   LIG    1        1.239  -0.670  -0.013  0.00  0.00    +0.147 A 
ATOM      5  C   LIG    1        2.411   0.106  -0.021  0.00  0.00    +0.147 A 
ATOM      6  N   LIG    1        2.293   1.430  -0.013  0.00  0.00    -0.219 NA
ATOM      7  C   LIG    1        1.107   2.011   0.002  0.00  0.00    +0.225 A 
ATOM      8  N   LIG    1       -0.016   1.325   0.009  0.00  0.00    -0.216 NA
ATOM      9  C   LIG    1        0.002  -0.004   0.002  0.00  0.00    +0.167 A 
ENDROOT
BRANCH   1  14
ATOM     10  C   LIG    1       -5.105  -3.232   0.146  0.00  0.00    +0.040 C 
ATOM     11  C   LIG    1       -4.433  -1.858   0.088  0.00  0.00    +0.146 C 
ATOM     12  C   LIG    1       -4.311  -1.378  -1.375  0.00  0.00    +0.147 C 
ATOM     13  C   LIG    1       -2.947  -0.654  -1.420  0.00  0.00    +0.088 C 
ATOM     14  C   LIG    1       -2.407  -0.782   0.022  0.00  0.00    +0.225 C 
ATOM     15  O   LIG    1       -3.072  -1.943   0.564  0.00  0.00    -0.351 OA
BRANCH  12  16
ATOM     16  O   LIG    1       -5.369  -0.473  -1.696  0.00  0.00    -0.389 OA
ATOM     17  H   LIG    1       -5.341  -0.140  -2.603  0.00  0.00    +0.210 HD
ENDBRANCH  12  16
ENDBRANCH   1  14
BRANCH   5  18
ATOM     18  N   LIG    1        3.658  -0.494  -0.036  0.00  0.00    -0.341 N 
ATOM     19  H   LIG    1        4.459   0.053  -0.041  0.00  0.00    +0.144 HD
ATOM     20  H   LIG    1        3.761  -1.067   0.777  0.00  0.00    +0.144 HD
ENDBRANCH   5  18
TORSDOF 3
