REMARK  Name = ZINC00002775
REMARK                            x       y       z     vdW  Elec       q    Type
REMARK                         _______ _______ _______ _____ _____    ______ ____
ROOT
ATOM      1  C   LIG    1        0.013   1.357  -0.054  0.00  0.00    +0.044 A 
ATOM      2  C   LIG    1        1.205   2.089   0.038  0.00  0.00    -0.017 A 
ATOM      3  C   LIG    1        2.429   1.415   0.157  0.00  0.00    +0.057 A 
ATOM      4  C   LIG    1        2.452   0.036   0.182  0.00  0.00    +0.161 A 
ATOM      5  C   LIG    1        1.261  -0.685   0.090  0.00  0.00    +0.189 A 
ATOM      6  C   LIG    1        0.048  -0.018  -0.028  0.00  0.00    +0.167 A 
ENDROOT
BRANCH   2   7
ATOM      7  C   LIG    1        1.173   3.554   0.009  0.00  0.00    +0.038 C 
ATOM      8  C   LIG    1        2.241   4.256  -0.501  0.00  0.00    +0.129 C 
BRANCH   8   9
ATOM      9  C   LIG    1        2.274   5.684  -0.397  0.00  0.00    +0.110 C 
ATOM     10  N   LIG    1        2.301   6.817  -0.315  0.00  0.00    -0.190 NA
ENDBRANCH   8   9
BRANCH   8  11
ATOM     11  C   LIG    1        3.319   3.559  -1.136  0.00  0.00    +0.110 C 
ATOM     12  N   LIG    1        4.174   3.006  -1.639  0.00  0.00    -0.190 NA
ENDBRANCH   8  11
ENDBRANCH   2   7
BRANCH   4  13
ATOM     13  O   LIG    1        3.637  -0.622   0.297  0.00  0.00    -0.503 OA
ATOM     14  H   LIG    1        3.903  -0.797   1.210  0.00  0.00    +0.292 HD
ENDBRANCH   4  13
BRANCH   5  15
ATOM     15  O   LIG    1        1.288  -2.042   0.115  0.00  0.00    -0.502 OA
ATOM     16  H   LIG    1        2.105  -2.493   0.195  0.00  0.00    +0.292 HD
ENDBRANCH   5  15
BRANCH   6  17
ATOM     17  N   LIG    1       -1.212  -0.790  -0.124  0.00  0.00    +0.010 N 
ATOM     18  O   LIG    1       -2.269  -0.212  -0.227  0.00  0.00    -0.130 OA
BRANCH  17  19
ATOM     19  O   LIG    1       -1.183  -1.999  -0.101  0.00  0.00    -0.396 OA
ATOM     20  H   LIG    1       -0.364  -2.447  -0.022  0.00  0.00    +0.329 HD
ENDBRANCH  17  19
ENDBRANCH   6  17
TORSDOF 7
