REMARK  Name = ZINC00030669
REMARK                            x       y       z     vdW  Elec       q    Type
REMARK                         _______ _______ _______ _____ _____    ______ ____
ROOT
ATOM      1  C   LIG    1       -0.474  -0.295   2.182  0.00  0.00    +0.225 C 
ATOM      2  N   LIG    1       -0.486   0.917   2.771  0.00  0.00    -0.285 N 
ATOM      3  H   LIG    1        0.099   1.620   2.447  0.00  0.00    +0.155 HD
ATOM      4  O   LIG    1       -1.159  -1.192   2.627  0.00  0.00    -0.275 OA
ENDROOT
BRANCH   2   5
ATOM      5  C   LIG    1       -1.341   1.163   3.846  0.00  0.00    +0.036 A 
ATOM      6  C   LIG    1       -1.768   0.123   4.671  0.00  0.00    +0.043 A 
ATOM      7  C   LIG    1       -2.613   0.407   5.724  0.00  0.00    +0.112 A 
ATOM      8  N   LIG    1       -3.016   1.643   5.954  0.00  0.00    -0.263 NA
ATOM      9  C   LIG    1       -2.634   2.653   5.196  0.00  0.00    +0.112 A 
ATOM     10  C   LIG    1       -1.785   2.454   4.127  0.00  0.00    +0.043 A 
ENDBRANCH   2   5
BRANCH   1  11
ATOM     11  C   LIG    1        0.390  -0.536   0.971  0.00  0.00    +0.105 C 
BRANCH  11  12
ATOM     12  C   LIG    1        1.795  -0.858   1.413  0.00  0.00    -0.036 A 
ATOM     13  C   LIG    1        2.032  -1.960   2.212  0.00  0.00    +0.004 A 
ATOM     14  C   LIG    1        3.321  -2.256   2.617  0.00  0.00    +0.000 A 
ATOM     15  C   LIG    1        4.371  -1.449   2.222  0.00  0.00    +0.000 A 
ATOM     16  C   LIG    1        4.134  -0.347   1.422  0.00  0.00    +0.000 A 
ATOM     17  C   LIG    1        2.846  -0.054   1.014  0.00  0.00    +0.004 A 
ENDBRANCH  11  12
BRANCH  11  19
ATOM     18  C   LIG    1        0.561  -1.812  -1.170  0.00  0.00    +0.005 C 
ATOM     19  C   LIG    1       -0.173  -1.710   0.168  0.00  0.00    +0.014 C 
ENDBRANCH  11  19
ENDBRANCH   1  11
TORSDOF 4
