REMARK  Name = ZINC00067688
REMARK                            x       y       z     vdW  Elec       q    Type
REMARK                         _______ _______ _______ _____ _____    ______ ____
ROOT
ATOM      1  C   LIG    1       -0.016   1.361   0.009  0.00  0.00    +0.001 A 
ATOM      2  C   LIG    1        1.169   2.083   0.002  0.00  0.00    +0.004 A 
ATOM      3  C   LIG    1        2.387   1.435  -0.026  0.00  0.00    +0.047 A 
ATOM      4  C   LIG    1        2.431   0.048  -0.040  0.00  0.00    +0.139 A 
ATOM      5  C   LIG    1        1.229  -0.684  -0.003  0.00  0.00    +0.018 A 
ATOM      6  C   LIG    1        1.266  -2.101   0.048  0.00  0.00    +0.033 A 
ATOM      7  C   LIG    1        2.496  -2.716   0.256  0.00  0.00    +0.144 A 
ATOM      8  C   LIG    1        3.668  -1.839   0.443  0.00  0.00    +0.351 A 
ATOM      9  O   LIG    1        4.646  -2.220   1.059  0.00  0.00    -0.244 OA
ATOM     10  O   LIG    1        3.620  -0.599  -0.096  0.00  0.00    -0.422 OA
ATOM     11  C   LIG    1        0.002  -0.004   0.002  0.00  0.00    +0.011 A 
ENDROOT
BRANCH   7  12
ATOM     12  C   LIG    1        2.623  -4.178   0.290  0.00  0.00    +0.344 C 
ATOM     13  O   LIG    1        1.634  -4.882   0.133  0.00  0.00    -0.245 OA
BRANCH  12  14
ATOM     14  O   LIG    1        3.718  -4.693   0.475  0.00  0.00    -0.477 OA
ATOM     15  H   LIG    1        4.475  -4.155   0.595  0.00  0.00    +0.295 HD
ENDBRANCH  12  14
ENDBRANCH   7  12
TORSDOF 2
