REMARK  Name = ZINC00004739
REMARK                            x       y       z     vdW  Elec       q    Type
REMARK                         _______ _______ _______ _____ _____    ______ ____
ROOT
ATOM      1  N   LIG    1        3.619  -0.668  -0.174  0.00  0.00    -0.257 N 
ATOM      2  C   LIG    1        4.774   0.029  -0.285  0.00  0.00    +0.266 A 
ATOM      3  C   LIG    1        6.032  -0.720  -0.150  0.00  0.00    +0.065 A 
ATOM      4  C   LIG    1        7.275  -0.097  -0.247  0.00  0.00    +0.015 A 
ATOM      5  C   LIG    1        8.422  -0.846  -0.112  0.00  0.00    +0.001 A 
ATOM      6  C   LIG    1        8.350  -2.214   0.119  0.00  0.00    +0.002 A 
ATOM      7  C   LIG    1        7.133  -2.849   0.218  0.00  0.00    +0.028 A 
ATOM      8  C   LIG    1        5.955  -2.111   0.086  0.00  0.00    +0.078 A 
ATOM      9  N   LIG    1        4.734  -2.696   0.177  0.00  0.00    -0.225 NA
ATOM     10  O   LIG    1        4.771   1.229  -0.488  0.00  0.00    -0.267 OA
ATOM     11  C   LIG    1        3.639  -2.008   0.059  0.00  0.00    +0.223 A 
ENDROOT
BRANCH   1  15
ATOM     12  C   LIG    1       -0.030   1.313  -0.534  0.00  0.00    +0.000 A 
ATOM     13  C   LIG    1        0.526   1.113   0.717  0.00  0.00    +0.002 A 
ATOM     14  C   LIG    1        1.736   0.456   0.839  0.00  0.00    +0.026 A 
ATOM     15  C   LIG    1        2.393  -0.003  -0.295  0.00  0.00    +0.051 A 
ATOM     16  C   LIG    1        1.832   0.200  -1.549  0.00  0.00    +0.026 A 
ATOM     17  C   LIG    1        0.622   0.857  -1.665  0.00  0.00    +0.002 A 
ENDBRANCH   1  15
BRANCH  11  18
ATOM     18  C   LIG    1        2.323  -2.733   0.180  0.00  0.00    +0.451 C 
ATOM     19  F   LIG    1        1.583  -2.554  -0.993  0.00  0.00    -0.163 F 
ATOM     20  F   LIG    1        1.606  -2.219   1.267  0.00  0.00    -0.163 F 
ATOM     21  F   LIG    1        2.559  -4.097   0.380  0.00  0.00    -0.163 F 
ENDBRANCH  11  18
TORSDOF 2
