REMARK  Name = ZINC00004234
REMARK                            x       y       z     vdW  Elec       q    Type
REMARK                         _______ _______ _______ _____ _____    ______ ____
ROOT
ATOM      1  C   LIG    1       -1.202  -0.342  -0.116  0.00  0.00    +0.077 A 
ATOM      2  C   LIG    1       -1.861  -1.270  -0.947  0.00  0.00    +0.066 A 
ATOM      3  C   LIG    1       -3.113  -1.533  -0.348  0.00  0.00    +0.078 A 
ATOM      4  C   LIG    1       -4.185  -2.358  -0.707  0.00  0.00    +0.028 A 
ATOM      5  C   LIG    1       -5.290  -2.402   0.094  0.00  0.00    +0.004 A 
ATOM      6  C   LIG    1       -5.328  -1.622   1.256  0.00  0.00    +0.020 A 
ATOM      7  C   LIG    1       -4.279  -0.832   1.582  0.00  0.00    +0.113 A 
ATOM      8  N   LIG    1       -3.174  -0.781   0.789  0.00  0.00    -0.239 N 
ATOM      9  N   LIG    1       -1.975  -0.067   0.900  0.00  0.00    -0.170 NA
ENDROOT
BRANCH   1  11
ATOM     10  C   LIG    1        0.073   1.755  -0.472  0.00  0.00    +0.014 C 
ATOM     11  C   LIG    1        0.171   0.233  -0.356  0.00  0.00    +0.034 C 
ATOM     12  C   LIG    1        1.088  -0.132   0.813  0.00  0.00    +0.014 C 
ENDBRANCH   1  11
BRANCH   2  13
ATOM     13  C   LIG    1       -1.366  -1.828  -2.146  0.00  0.00    +0.170 C 
ATOM     14  O   LIG    1       -0.813  -2.909  -2.130  0.00  0.00    -0.292 OA
BRANCH  13  15
ATOM     15  C   LIG    1       -1.523  -1.081  -3.446  0.00  0.00    +0.054 C 
ATOM     16  C   LIG    1       -2.875  -1.428  -4.073  0.00  0.00    +0.015 C 
ATOM     17  C   LIG    1       -0.399  -1.482  -4.404  0.00  0.00    +0.015 C 
ENDBRANCH  13  15
ENDBRANCH   2  13
TORSDOF 3
