REMARK  Name = ZINC00042534
REMARK                            x       y       z     vdW  Elec       q    Type
REMARK                         _______ _______ _______ _____ _____    ______ ____
ROOT
ATOM      1  C   LIG    1       -1.137  -2.080   0.002  0.00  0.00    +0.084 A 
ATOM      2  C   LIG    1       -2.219  -2.947   0.002  0.00  0.00    +0.068 A 
ATOM      3  C   LIG    1       -1.929  -4.370  -0.007  0.00  0.00    -0.023 A 
ATOM      4  C   LIG    1       -0.611  -4.666  -0.014  0.00  0.00    -0.004 A 
ATOM      5  C   LIG    1        0.005  -6.031  -0.022  0.00  0.00    +0.043 C 
ATOM      6  C   LIG    1       -1.078  -7.051   0.359  0.00  0.00    +0.005 C 
ATOM      7  C   LIG    1       -2.335  -6.772  -0.470  0.00  0.00    +0.005 C 
ATOM      8  C   LIG    1       -2.985  -5.466  -0.010  0.00  0.00    +0.037 C 
ATOM      9  S   LIG    1        0.201  -3.095  -0.017  0.00  0.00    -0.077 S 
ENDROOT
BRANCH   1  12
ATOM     10  C   LIG    1       -0.018   1.503   0.010  0.00  0.00    +0.109 C 
ATOM     11  C   LIG    1        0.002  -0.004   0.002  0.00  0.00    +0.214 C 
ATOM     12  N   LIG    1       -1.156  -0.694   0.009  0.00  0.00    -0.280 N 
ATOM     13  H   LIG    1       -2.002  -0.220   0.020  0.00  0.00    +0.155 HD
ATOM     14  O   LIG    1        1.060  -0.596  -0.011  0.00  0.00    -0.276 OA
ENDBRANCH   1  12
BRANCH   2  15
ATOM     15  C   LIG    1       -3.597  -2.448   0.011  0.00  0.00    +0.244 C 
ATOM     16  N   LIG    1       -4.225  -2.225   1.182  0.00  0.00    -0.325 N 
ATOM     17  H   LIG    1       -5.138  -1.895   1.188  0.00  0.00    +0.145 HD
ATOM     18  H   LIG    1       -3.765  -2.394   2.019  0.00  0.00    +0.145 HD
ATOM     19  O   LIG    1       -4.174  -2.236  -1.039  0.00  0.00    -0.270 OA
ENDBRANCH   2  15
TORSDOF 2
