REMARK  Name = ZINC00024150
REMARK                            x       y       z     vdW  Elec       q    Type
REMARK                         _______ _______ _______ _____ _____    ______ ____
ROOT
ATOM      1  C   LIG    1       -0.811   1.716   0.170  0.00  0.00    +0.034 A 
ATOM      2  C   LIG    1       -0.802   3.104   0.183  0.00  0.00    +0.027 A 
ATOM      3  C   LIG    1       -1.992   3.802   0.235  0.00  0.00    +0.048 A 
ATOM      4  C   LIG    1       -3.197   3.116   0.286  0.00  0.00    +0.129 A 
ATOM      5  C   LIG    1       -3.206   1.728   0.279  0.00  0.00    +0.048 A 
ATOM      6  C   LIG    1       -2.017   1.030   0.220  0.00  0.00    +0.027 A 
ENDROOT
BRANCH   1   8
ATOM      7  C   LIG    1        0.465  -0.152  -0.573  0.00  0.00    +0.217 C 
ATOM      8  N   LIG    1        0.397   1.008   0.111  0.00  0.00    -0.286 N 
ATOM      9  H   LIG    1        1.182   1.350   0.565  0.00  0.00    +0.155 HD
ATOM     10  O   LIG    1       -0.534  -0.617  -1.079  0.00  0.00    -0.275 OA
BRANCH   7  12
ATOM     11  C   LIG    1        1.585  -2.149  -1.524  0.00  0.00    +0.013 C 
ATOM     12  C   LIG    1        1.783  -0.870  -0.709  0.00  0.00    +0.093 C 
ENDBRANCH   7  12
ENDBRANCH   1   8
BRANCH   4  13
ATOM     13  O   LIG    1       -4.369   3.803   0.343  0.00  0.00    -0.456 OA
BRANCH  13  14
ATOM     14  C   LIG    1       -4.321   5.156   0.227  0.00  0.00    +0.132 A 
ATOM     15  C   LIG    1       -4.668   5.958   1.306  0.00  0.00    +0.046 A 
ATOM     16  C   LIG    1       -4.614   7.334   1.190  0.00  0.00    +0.007 A 
ATOM     17  C   LIG    1       -4.226   7.915  -0.003  0.00  0.00    +0.046 A 
ATOM     18  C   LIG    1       -3.884   7.117  -1.085  0.00  0.00    +0.124 A 
ATOM     19  C   LIG    1       -3.931   5.736  -0.970  0.00  0.00    +0.091 A 
BRANCH  18  20
ATOM     20  O   LIG    1       -3.502   7.689  -2.258  0.00  0.00    -0.495 OA
ATOM     21  C   LIG    1       -3.476   9.117  -2.305  0.00  0.00    +0.277 C 
ENDBRANCH  18  20
ENDBRANCH  13  14
ENDBRANCH   4  13
TORSDOF 5
