REMARK  Name = ZINC00039321
REMARK                            x       y       z     vdW  Elec       q    Type
REMARK                         _______ _______ _______ _____ _____    ______ ____
ROOT
ATOM      1  C   LIG    1       -0.033   1.345  -0.292  0.00  0.00    +0.001 A 
ATOM      2  C   LIG    1        1.141   2.038  -0.548  0.00  0.00    +0.004 A 
ATOM      3  C   LIG    1        2.356   1.387  -0.549  0.00  0.00    +0.047 A 
ATOM      4  C   LIG    1        2.412   0.022  -0.291  0.00  0.00    +0.140 A 
ATOM      5  C   LIG    1        1.223  -0.678  -0.033  0.00  0.00    +0.068 A 
ATOM      6  C   LIG    1        1.300  -2.126   0.239  0.00  0.00    +0.234 A 
ATOM      7  C   LIG    1        2.584  -2.725   0.221  0.00  0.00    +0.208 A 
ATOM      8  C   LIG    1        3.686  -1.948  -0.044  0.00  0.00    +0.181 A 
ATOM      9  O   LIG    1        0.298  -2.782   0.469  0.00  0.00    -0.283 OA
ATOM     10  O   LIG    1        3.593  -0.630  -0.289  0.00  0.00    -0.451 OA
ATOM     11  C   LIG    1        0.000  -0.007  -0.035  0.00  0.00    +0.015 A 
ENDROOT
BRANCH   8  12
ATOM     12  C   LIG    1        5.017  -2.582  -0.060  0.00  0.00    +0.025 A 
ATOM     13  C   LIG    1        5.218  -3.771  -0.766  0.00  0.00    +0.015 A 
ATOM     14  C   LIG    1        6.464  -4.362  -0.780  0.00  0.00    +0.050 A 
ATOM     15  C   LIG    1        7.520  -3.779  -0.093  0.00  0.00    +0.158 A 
ATOM     16  C   LIG    1        7.326  -2.593   0.614  0.00  0.00    +0.159 A 
ATOM     17  C   LIG    1        6.082  -1.992   0.627  0.00  0.00    +0.060 A 
BRANCH  15  18
ATOM     18  O   LIG    1        8.745  -4.366  -0.110  0.00  0.00    -0.503 OA
ATOM     19  H   LIG    1        9.312  -4.072  -0.835  0.00  0.00    +0.292 HD
ENDBRANCH  15  18
BRANCH  16  20
ATOM     20  O   LIG    1        8.363  -2.026   1.285  0.00  0.00    -0.503 OA
ATOM     21  H   LIG    1        8.876  -1.397   0.759  0.00  0.00    +0.292 HD
ENDBRANCH  16  20
ENDBRANCH   8  12
BRANCH   7  22
ATOM     22  O   LIG    1        2.725  -4.057   0.463  0.00  0.00    -0.501 OA
ATOM     23  H   LIG    1        1.892  -4.515   0.639  0.00  0.00    +0.292 HD
ENDBRANCH   7  22
TORSDOF 4
