REMARK  Name = ZINC00001863
REMARK                            x       y       z     vdW  Elec       q    Type
REMARK                         _______ _______ _______ _____ _____    ______ ____
ROOT
ATOM      1  C   LIG    1        3.682  -0.715  -0.075  0.00  0.00    +0.117 A 
ATOM      2  C   LIG    1        4.007  -1.835   0.662  0.00  0.00    +0.163 A 
ATOM      3  O   LIG    1        5.301  -2.113   0.390  0.00  0.00    -0.439 OA
ATOM      4  C   LIG    1        5.746  -1.196  -0.480  0.00  0.00    +0.197 A 
ATOM      5  N   LIG    1        4.787  -0.364  -0.766  0.00  0.00    -0.213 NA
ENDROOT
BRANCH   1   9
ATOM      6  C   LIG    1       -0.086   1.248  -0.167  0.00  0.00    +0.000 A 
ATOM      7  C   LIG    1        0.431   0.806   1.038  0.00  0.00    +0.001 A 
ATOM      8  C   LIG    1        1.654   0.168   1.074  0.00  0.00    +0.010 A 
ATOM      9  C   LIG    1        2.369  -0.031  -0.107  0.00  0.00    +0.004 A 
ATOM     10  C   LIG    1        1.842   0.416  -1.318  0.00  0.00    +0.010 A 
ATOM     11  C   LIG    1        0.618   1.053  -1.342  0.00  0.00    +0.001 A 
ENDBRANCH   1   9
BRANCH   2  12
ATOM     12  C   LIG    1        3.116  -2.583   1.571  0.00  0.00    +0.019 A 
ATOM     13  C   LIG    1        1.832  -2.944   1.154  0.00  0.00    +0.011 A 
ATOM     14  C   LIG    1        1.004  -3.643   2.008  0.00  0.00    +0.001 A 
ATOM     15  C   LIG    1        1.443  -3.986   3.275  0.00  0.00    +0.000 A 
ATOM     16  C   LIG    1        2.713  -3.631   3.694  0.00  0.00    +0.001 A 
ATOM     17  C   LIG    1        3.554  -2.938   2.848  0.00  0.00    +0.011 A 
ENDBRANCH   2  12
BRANCH   4  18
ATOM     18  C   LIG    1        7.142  -1.141  -1.046  0.00  0.00    +0.107 C 
BRANCH  18  19
ATOM     19  C   LIG    1        8.025  -0.281  -0.140  0.00  0.00    +0.130 C 
BRANCH  19  20
ATOM     20  C   LIG    1        9.421  -0.226  -0.705  0.00  0.00    +0.305 C 
ATOM     21  O   LIG    1        9.685  -0.820  -1.737  0.00  0.00    -0.251 OA
BRANCH  20  22
ATOM     22  O   LIG    1       10.287   0.412  -0.131  0.00  0.00    -0.481 OA
ATOM     23  H   LIG    1       10.084   0.868   0.662  0.00  0.00    +0.295 HD
ENDBRANCH  20  22
ENDBRANCH  19  20
ENDBRANCH  18  19
ENDBRANCH   4  18
TORSDOF 6
