REMARK  Name = ZINC00022706
REMARK                            x       y       z     vdW  Elec       q    Type
REMARK                         _______ _______ _______ _____ _____    ______ ____
ROOT
ATOM      1  S   LIG    1        0.126   1.456   2.321  0.00  0.00    +0.062 S 
ATOM      2  O   LIG    1        0.606   1.414   3.658  0.00  0.00    -0.153 OA
ATOM      3  O   LIG    1       -1.078   2.120   1.964  0.00  0.00    -0.153 OA
ENDROOT
BRANCH   1  13
ATOM      4  C   LIG    1       -2.071   0.966   3.543  0.00  0.00    +0.046 C 
ATOM      5  C   LIG    1       -2.147  -0.456   3.049  0.00  0.00    -0.023 A 
ATOM      6  C   LIG    1       -3.188  -1.260   3.404  0.00  0.00    +0.114 A 
ATOM      7  N   LIG    1       -3.279  -2.514   2.984  0.00  0.00    -0.262 NA
ATOM      8  C   LIG    1       -2.381  -3.069   2.204  0.00  0.00    +0.119 A 
ATOM      9  C   LIG    1       -1.267  -2.326   1.780  0.00  0.00    +0.002 A 
ATOM     10  C   LIG    1       -0.279  -2.874   0.946  0.00  0.00    +0.010 A 
ATOM     11  C   LIG    1        0.771  -2.101   0.554  0.00  0.00    +0.003 A 
ATOM     12  C   LIG    1        0.891  -0.779   0.980  0.00  0.00    +0.029 A 
ATOM     13  C   LIG    1       -0.045  -0.216   1.794  0.00  0.00    +0.113 A 
ATOM     14  C   LIG    1       -1.147  -0.979   2.210  0.00  0.00    +0.014 A 
ENDBRANCH   1  13
BRANCH   1  15
ATOM     15  N   LIG    1        1.329   2.136   1.409  0.00  0.00    -0.176 NA
ATOM     16  C   LIG    1        2.691   2.222   1.975  0.00  0.00    +0.108 C 
ATOM     17  C   LIG    1        3.342   3.578   1.647  0.00  0.00    -0.002 C 
ATOM     18  C   LIG    1        2.309   4.676   1.770  0.00  0.00    -0.081 C 
ATOM     19  N   LIG    1        1.706   4.920   0.461  0.00  0.00    +0.380 N 
ATOM     20  H   LIG    1        2.410   4.768  -0.246  0.00  0.00    -0.086 HD
ATOM     21  H   LIG    1        1.421   5.887   0.418  0.00  0.00    -0.086 HD
ATOM     22  C   LIG    1        0.589   4.111   0.160  0.00  0.00    -0.062 C 
ATOM     23  C   LIG    1        1.010   2.619   0.081  0.00  0.00    +0.060 C 
ATOM     24  C   LIG    1       -0.137   1.790  -0.500  0.00  0.00    +0.024 C 
ENDBRANCH   1  15
TORSDOF 2
