REMARK  Name = ZINC00027361
REMARK                            x       y       z     vdW  Elec       q    Type
REMARK                         _______ _______ _______ _____ _____    ______ ____
ROOT
ATOM      1  C   LIG    1       -0.018   1.461   0.010  0.00  0.00    +0.163 C 
ATOM      2  N   LIG    1        0.002  -0.004   0.002  0.00  0.00    -0.263 N 
ATOM      3  C   LIG    1       -1.045  -0.857   0.002  0.00  0.00    +0.339 A 
ATOM      4  N   LIG    1       -0.769  -2.154  -0.006  0.00  0.00    -0.249 N 
ATOM      5  C   LIG    1        0.535  -2.506  -0.014  0.00  0.00    +0.311 A 
ATOM      6  O   LIG    1        1.017  -3.623  -0.023  0.00  0.00    -0.258 OA
ATOM      7  O   LIG    1       -2.192  -0.452   0.009  0.00  0.00    -0.246 OA
ATOM      8  S   LIG    1        1.329  -1.026  -0.017  0.00  0.00    +0.054 S 
ENDROOT
BRANCH   4   9
ATOM      9  C   LIG    1       -1.833  -3.162  -0.007  0.00  0.00    +0.165 C 
BRANCH   9  10
ATOM     10  C   LIG    1       -2.204  -3.500  -1.428  0.00  0.00    -0.027 A 
ATOM     11  C   LIG    1       -3.194  -2.782  -2.073  0.00  0.00    +0.005 A 
ATOM     12  C   LIG    1       -3.534  -3.092  -3.376  0.00  0.00    +0.000 A 
ATOM     13  C   LIG    1       -2.885  -4.120  -4.035  0.00  0.00    +0.000 A 
ATOM     14  C   LIG    1       -1.895  -4.837  -3.390  0.00  0.00    +0.000 A 
ATOM     15  C   LIG    1       -1.551  -4.524  -2.088  0.00  0.00    +0.005 A 
ENDBRANCH   9  10
ENDBRANCH   4   9
TORSDOF 2
