REMARK  Name = ZINC00031269
REMARK                            x       y       z     vdW  Elec       q    Type
REMARK                         _______ _______ _______ _____ _____    ______ ____
ROOT
ATOM      1  C   LIG    1       -5.782   3.640   0.334  0.00  0.00    +0.102 C 
ATOM      2  N   LIG    1       -6.022   2.339   0.350  0.00  0.00    -0.168 NA
ATOM      3  C   LIG    1       -5.063   1.444   0.251  0.00  0.00    +0.275 C 
ATOM      4  C   LIG    1       -3.684   1.969   0.133  0.00  0.00    +0.078 C 
ATOM      5  C   LIG    1       -2.504   1.301   0.021  0.00  0.00    +0.032 C 
ATOM      6  O   LIG    1       -5.297   0.246   0.261  0.00  0.00    -0.267 OA
ATOM      7  S   LIG    1       -4.006   3.728   0.170  0.00  0.00    -0.066 S 
ENDROOT
BRANCH   1  12
ATOM      8  C   LIG    1       -9.553   7.970   0.701  0.00  0.00    +0.044 C 
ATOM      9  C   LIG    1       -8.565   6.836   0.606  0.00  0.00    -0.050 A 
ATOM     10  C   LIG    1       -9.013   5.527   0.641  0.00  0.00    +0.004 A 
ATOM     11  C   LIG    1       -8.115   4.484   0.553  0.00  0.00    +0.010 A 
ATOM     12  C   LIG    1       -6.750   4.751   0.428  0.00  0.00    +0.005 A 
ATOM     13  C   LIG    1       -6.304   6.075   0.399  0.00  0.00    +0.010 A 
ATOM     14  C   LIG    1       -7.214   7.108   0.482  0.00  0.00    +0.004 A 
ENDBRANCH   1  12
BRANCH   5  15
ATOM     15  C   LIG    1       -1.267   2.039  -0.253  0.00  0.00    +0.021 A 
ATOM     16  C   LIG    1       -1.322   3.341  -0.769  0.00  0.00    +0.012 A 
ATOM     17  C   LIG    1       -0.158   4.028  -1.029  0.00  0.00    +0.004 A 
ATOM     18  C   LIG    1        1.073   3.441  -0.778  0.00  0.00    +0.049 A 
ATOM     19  C   LIG    1        1.145   2.157  -0.262  0.00  0.00    +0.162 A 
ATOM     20  C   LIG    1       -0.020   1.449   0.007  0.00  0.00    +0.166 A 
BRANCH  19  21
ATOM     21  O   LIG    1        2.357   1.590  -0.019  0.00  0.00    -0.491 OA
ATOM     22  C   LIG    1        3.513   2.375  -0.319  0.00  0.00    +0.277 C 
ENDBRANCH  19  21
BRANCH  20  23
ATOM     23  O   LIG    1        0.047   0.191   0.513  0.00  0.00    -0.503 OA
ATOM     24  H   LIG    1        0.056   0.155   1.479  0.00  0.00    +0.292 HD
ENDBRANCH  20  23
ENDBRANCH   5  15
TORSDOF 4
