REMARK  Name = ZINC00057464
REMARK                            x       y       z     vdW  Elec       q    Type
REMARK                         _______ _______ _______ _____ _____    ______ ____
ROOT
ATOM      1  C   LIG    1        0.731  -0.503   1.223  0.00  0.00    +0.056 A 
ATOM      2  C   LIG    1        2.108  -0.714   1.186  0.00  0.00    +0.043 A 
ATOM      3  C   LIG    1        2.741  -1.181   2.352  0.00  0.00    +0.129 A 
ATOM      4  N   LIG    1        2.007  -1.400   3.437  0.00  0.00    -0.199 NA
ATOM      5  C   LIG    1        0.701  -1.185   3.425  0.00  0.00    +0.214 A 
ATOM      6  N   LIG    1        0.073  -0.742   2.346  0.00  0.00    -0.219 NA
ENDROOT
BRANCH   2   7
ATOM      7  C   LIG    1        2.884  -0.455  -0.050  0.00  0.00    -0.013 A 
ATOM      8  C   LIG    1        2.653  -1.216  -1.194  0.00  0.00    +0.010 A 
ATOM      9  C   LIG    1        3.378  -0.970  -2.342  0.00  0.00    +0.020 A 
ATOM     10  C   LIG    1        4.334   0.031  -2.359  0.00  0.00    +0.041 A 
ATOM     11 CL   LIG    1        5.244   0.334  -3.806  0.00  0.00    -0.084 Cl
ATOM     12  C   LIG    1        4.568   0.790  -1.225  0.00  0.00    +0.020 A 
ATOM     13  C   LIG    1        3.844   0.556  -0.074  0.00  0.00    +0.010 A 
ENDBRANCH   2   7
BRANCH   3  14
ATOM     14  N   LIG    1        4.106  -1.407   2.369  0.00  0.00    -0.343 N 
ATOM     15  H   LIG    1        4.535  -1.728   3.178  0.00  0.00    +0.144 HD
ATOM     16  H   LIG    1        4.635  -1.244   1.572  0.00  0.00    +0.144 HD
ENDBRANCH   3  14
BRANCH   5  17
ATOM     17  N   LIG    1       -0.030  -1.426   4.575  0.00  0.00    -0.327 N 
ATOM     18  H   LIG    1       -0.988  -1.274   4.582  0.00  0.00    +0.145 HD
ATOM     19  H   LIG    1        0.416  -1.748   5.375  0.00  0.00    +0.145 HD
ENDBRANCH   5  17
BRANCH   1  21
ATOM     20  C   LIG    1       -0.019   1.526   0.010  0.00  0.00    +0.010 C 
ATOM     21  C   LIG    1        0.002  -0.004   0.002  0.00  0.00    +0.053 C 
ENDBRANCH   1  21
TORSDOF 4
