REMARK  Name = ZINC00021455
REMARK                            x       y       z     vdW  Elec       q    Type
REMARK                         _______ _______ _______ _____ _____    ______ ____
ROOT
ATOM      1  C   LIG    1        3.698  -0.689  -0.038  0.00  0.00    +0.121 A 
ATOM      2  C   LIG    1        3.997  -1.964   0.624  0.00  0.00    +0.054 A 
ATOM      3  C   LIG    1        5.293  -2.259   0.349  0.00  0.00    +0.171 A 
ATOM      4  O   LIG    1        5.796  -1.279  -0.413  0.00  0.00    -0.356 OA
ATOM      5  N   LIG    1        4.793  -0.311  -0.652  0.00  0.00    -0.077 NA
ENDROOT
BRANCH   1   9
ATOM      6  C   LIG    1       -0.017   1.379   0.010  0.00  0.00    +0.000 A 
ATOM      7  C   LIG    1        1.169   2.092   0.002  0.00  0.00    +0.001 A 
ATOM      8  C   LIG    1        2.377   1.426  -0.013  0.00  0.00    +0.010 A 
ATOM      9  C   LIG    1        2.402   0.033  -0.021  0.00  0.00    +0.004 A 
ATOM     10  C   LIG    1        1.205  -0.680  -0.013  0.00  0.00    +0.010 A 
ATOM     11  C   LIG    1        0.002  -0.004   0.002  0.00  0.00    +0.001 A 
ENDBRANCH   1   9
BRANCH   2  12
ATOM     12  C   LIG    1        3.060  -2.777   1.438  0.00  0.00    -0.012 A 
ATOM     13  C   LIG    1        2.559  -2.275   2.638  0.00  0.00    +0.010 A 
ATOM     14  C   LIG    1        1.688  -3.035   3.391  0.00  0.00    +0.029 A 
ATOM     15  C   LIG    1        1.312  -4.294   2.957  0.00  0.00    +0.105 A 
ATOM     16  C   LIG    1        1.806  -4.797   1.768  0.00  0.00    +0.029 A 
ATOM     17  C   LIG    1        2.673  -4.043   1.003  0.00  0.00    +0.010 A 
BRANCH  15  18
ATOM     18  S   LIG    1        0.200  -5.259   3.924  0.00  0.00    +0.056 S 
ATOM     19  O   LIG    1        0.308  -4.787   5.260  0.00  0.00    -0.153 OA
ATOM     20  O   LIG    1        0.430  -6.617   3.575  0.00  0.00    -0.153 OA
BRANCH  18  21
ATOM     21  N   LIG    1       -1.334  -4.894   3.417  0.00  0.00    -0.204 NA
ATOM     22  H   LIG    1       -2.097  -5.326   3.830  0.00  0.00    +0.144 HD
ATOM     23  H   LIG    1       -1.468  -4.248   2.706  0.00  0.00    +0.144 HD
ENDBRANCH  18  21
ENDBRANCH  15  18
ENDBRANCH   2  12
BRANCH   3  24
ATOM     24  C   LIG    1        6.040  -3.479   0.823  0.00  0.00    +0.233 C 
BRANCH  24  25
ATOM     25  O   LIG    1        5.891  -4.529  -0.135  0.00  0.00    -0.387 OA
ATOM     26  H   LIG    1        6.347  -5.348   0.105  0.00  0.00    +0.210 HD
ENDBRANCH  24  25
ENDBRANCH   3  24
TORSDOF 6
