REMARK  Name = ZINC00001553
REMARK                            x       y       z     vdW  Elec       q    Type
REMARK                         _______ _______ _______ _____ _____    ______ ____
ROOT
ATOM      1  C   LIG    1       -0.017   1.393   0.010  0.00  0.00    +0.012 A 
ATOM      2  C   LIG    1        1.168   2.096   0.002  0.00  0.00    +0.027 A 
ATOM      3  C   LIG    1        2.381   1.418  -0.013  0.00  0.00    +0.047 A 
ATOM      4  C   LIG    1        2.404   0.028  -0.021  0.00  0.00    +0.027 A 
ATOM      5  C   LIG    1        1.224  -0.682  -0.014  0.00  0.00    +0.012 A 
ATOM      6  C   LIG    1        0.002  -0.004   0.002  0.00  0.00    -0.002 A 
ENDROOT
BRANCH   6   7
ATOM      7  C   LIG    1       -1.263  -0.760   0.011  0.00  0.00    +0.067 C 
ATOM      8  N   LIG    1       -2.386  -0.120   0.020  0.00  0.00    -0.184 NA
ATOM      9  N   LIG    1       -3.611  -0.791   0.054  0.00  0.00    -0.207 N 
ATOM     10  H   LIG    1       -4.427  -0.314  -0.160  0.00  0.00    +0.177 HD
ATOM     11  C   LIG    1       -3.667  -2.096   0.383  0.00  0.00    +0.233 C 
ATOM     12  C   LIG    1       -2.409  -2.813   0.808  0.00  0.00    +0.104 C 
ATOM     13  O   LIG    1       -4.723  -2.692   0.337  0.00  0.00    -0.274 OA
ATOM     14  C   LIG    1       -1.225  -2.266   0.002  0.00  0.00    +0.067 C 
ENDBRANCH   6   7
BRANCH   3  15
ATOM     15  N   LIG    1        3.583   2.137  -0.022  0.00  0.00    -0.307 N 
ATOM     16  C   LIG    1        3.717   3.501  -0.011  0.00  0.00    +0.110 A 
ATOM     17  C   LIG    1        5.038   3.764  -0.025  0.00  0.00    +0.102 A 
ATOM     18  N   LIG    1        5.697   2.595  -0.045  0.00  0.00    -0.352 N 
ATOM     19  H   LIG    1        6.662   2.496  -0.058  0.00  0.00    +0.166 HD
ATOM     20  C   LIG    1        4.837   1.613  -0.037  0.00  0.00    +0.178 A 
ENDBRANCH   3  15
TORSDOF 2
