REMARK  Name = ZINC00058013
REMARK                            x       y       z     vdW  Elec       q    Type
REMARK                         _______ _______ _______ _____ _____    ______ ____
ROOT
ATOM      1  C   LIG    1       -0.018   1.503   0.010  0.00  0.00    +0.046 C 
ATOM      2  C   LIG    1        0.002  -0.004   0.002  0.00  0.00    -0.015 A 
ATOM      3  C   LIG    1       -0.006  -0.719  -1.220  0.00  0.00    +0.022 A 
ATOM      4  C   LIG    1       -0.022  -0.026  -2.442  0.00  0.00    +0.015 A 
ATOM      5  C   LIG    1       -0.024  -0.717  -3.616  0.00  0.00    +0.046 A 
ATOM      6  C   LIG    1       -0.005  -2.111  -3.614  0.00  0.00    +0.120 A 
ATOM      7  C   LIG    1        0.016  -2.812  -2.420  0.00  0.00    +0.092 A 
ATOM      8  C   LIG    1        0.019  -2.127  -1.213  0.00  0.00    +0.143 A 
ATOM      9  O   LIG    1        0.039  -2.813  -0.050  0.00  0.00    -0.421 OA
ATOM     10  C   LIG    1        0.042  -2.182   1.136  0.00  0.00    +0.355 A 
ATOM     11  O   LIG    1        0.060  -2.828   2.167  0.00  0.00    -0.244 OA
ATOM     12  C   LIG    1        0.023  -0.716   1.190  0.00  0.00    +0.139 A 
ENDROOT
BRANCH   6  13
ATOM     13  O   LIG    1       -0.008  -2.786  -4.791  0.00  0.00    -0.507 OA
ATOM     14  H   LIG    1       -0.892  -2.993  -5.124  0.00  0.00    +0.292 HD
ENDBRANCH   6  13
BRANCH  12  15
ATOM     15  C   LIG    1        0.026  -0.034   2.449  0.00  0.00    +0.107 C 
ATOM     16  N   LIG    1        0.028   0.508   3.448  0.00  0.00    -0.191 NA
ENDBRANCH  12  15
TORSDOF 2
