REMARK  Name = ZINC00014362
REMARK                            x       y       z     vdW  Elec       q    Type
REMARK                         _______ _______ _______ _____ _____    ______ ____
ROOT
ATOM      1  C   LIG    1       -0.013   1.076   0.008  0.00  0.00    +0.025 A 
ATOM      2  C   LIG    1       -1.218   1.751   0.017  0.00  0.00    +0.016 A 
ATOM      3  C   LIG    1       -1.237   3.134   0.031  0.00  0.00    +0.013 A 
ATOM      4  I   LIG    1       -3.067   4.154   0.053  0.00  0.00    -0.044 I 
ATOM      5  C   LIG    1       -0.050   3.845   0.023  0.00  0.00    +0.016 A 
ATOM      6  C   LIG    1        1.157   3.175   0.008  0.00  0.00    +0.025 A 
ATOM      7  C   LIG    1        1.180   1.787   0.000  0.00  0.00    +0.045 A 
ENDROOT
BRANCH   7   8
ATOM      8  N   LIG    1        2.404   1.105  -0.015  0.00  0.00    -0.203 N 
ATOM      9  C   LIG    1        2.546  -0.233  -0.019  0.00  0.00    +0.250 C 
ATOM     10  C   LIG    1        3.992  -0.549  -0.039  0.00  0.00    +0.073 C 
ATOM     11  C   LIG    1        4.646   0.624  -0.039  0.00  0.00    +0.073 C 
ATOM     12  O   LIG    1        1.643  -1.043  -0.009  0.00  0.00    -0.270 OA
ATOM     13  C   LIG    1        3.617   1.687  -0.024  0.00  0.00    +0.250 C 
ATOM     14  O   LIG    1        3.830   2.882  -0.020  0.00  0.00    -0.270 OA
ENDBRANCH   7   8
TORSDOF 1
