REMARK  Name = ZINC00016912
REMARK                            x       y       z     vdW  Elec       q    Type
REMARK                         _______ _______ _______ _____ _____    ______ ____
ROOT
ATOM      1  N   LIG    1        0.611  -3.074  -2.199  0.00  0.00    -0.262 N 
ATOM      2  H   LIG    1        0.176  -2.786  -3.017  0.00  0.00    +0.157 HD
ATOM      3  C   LIG    1        0.638  -4.381  -1.874  0.00  0.00    +0.309 C 
ATOM      4  N   LIG    1        0.061  -5.289  -2.685  0.00  0.00    -0.269 N 
ATOM      5  H   LIG    1       -0.432  -4.997  -3.468  0.00  0.00    +0.156 HD
ATOM      6  O   LIG    1        1.183  -4.741  -0.848  0.00  0.00    -0.252 OA
ENDROOT
BRANCH   4   7
ATOM      7  C   LIG    1        0.172  -6.657  -2.398  0.00  0.00    +0.035 A 
ATOM      8  C   LIG    1        0.173  -7.090  -1.073  0.00  0.00    +0.025 A 
ATOM      9  C   LIG    1        0.282  -8.429  -0.773  0.00  0.00    +0.028 A 
ATOM     10  C   LIG    1        0.391  -9.364  -1.797  0.00  0.00    +0.049 A 
ATOM     11  C   LIG    1        0.390  -8.931  -3.135  0.00  0.00    +0.002 A 
ATOM     12  C   LIG    1        0.517 -10.140  -3.953  0.00  0.00    +0.027 A 
ATOM     13  C   LIG    1        0.586 -11.181  -3.108  0.00  0.00    +0.086 A 
ATOM     14  N   LIG    1        0.512 -10.738  -1.815  0.00  0.00    -0.350 N 
ATOM     15  C   LIG    1        0.555 -11.595  -0.628  0.00  0.00    +0.149 C 
ATOM     16  C   LIG    1        0.274  -7.571  -3.429  0.00  0.00    +0.033 A 
ENDBRANCH   4   7
BRANCH   1  20
ATOM     17  C   LIG    1        2.105   1.394  -0.551  0.00  0.00    +0.066 C 
ATOM     18  C   LIG    1        1.943  -0.103  -0.512  0.00  0.00    +0.049 A 
ATOM     19  C   LIG    1        1.284  -0.779  -1.517  0.00  0.00    +0.055 A 
ATOM     20  C   LIG    1        1.209  -2.134  -1.360  0.00  0.00    +0.093 A 
ATOM     21  S   LIG    1        2.010  -2.389   0.092  0.00  0.00    +0.027 S 
ATOM     22  N   LIG    1        2.428  -0.815   0.474  0.00  0.00    -0.214 NA
ENDBRANCH   1  20
TORSDOF 2
