REMARK  Name = ZINC00020253
REMARK                            x       y       z     vdW  Elec       q    Type
REMARK                         _______ _______ _______ _____ _____    ______ ____
ROOT
ATOM      1  C   LIG    1       -0.017   1.375   0.010  0.00  0.00    +0.001 A 
ATOM      2  C   LIG    1        1.168   2.090   0.002  0.00  0.00    +0.000 A 
ATOM      3  C   LIG    1        2.383   1.425  -0.013  0.00  0.00    +0.009 A 
ATOM      4  C   LIG    1        2.413   0.049  -0.021  0.00  0.00    +0.019 A 
ATOM      5  C   LIG    1        1.223  -0.682  -0.013  0.00  0.00    +0.045 A 
ATOM      6  C   LIG    1        1.562  -2.118  -0.024  0.00  0.00    +0.247 C 
ATOM      7  N   LIG    1        2.896  -2.281  -0.038  0.00  0.00    -0.276 N 
ATOM      8  H   LIG    1        3.361  -3.133  -0.047  0.00  0.00    +0.152 HD
ATOM      9  O   LIG    1        0.751  -3.023  -0.021  0.00  0.00    -0.270 OA
ATOM     10  C   LIG    1        3.533  -0.960  -0.038  0.00  0.00    +0.187 C 
ATOM     11  C   LIG    1        0.002  -0.004   0.002  0.00  0.00    +0.013 A 
ENDROOT
BRANCH  10  12
ATOM     12  C   LIG    1        4.368  -0.786  -1.280  0.00  0.00    +0.009 A 
ATOM     13  C   LIG    1        4.042  -1.477  -2.433  0.00  0.00    +0.010 A 
ATOM     14  C   LIG    1        4.807  -1.319  -3.573  0.00  0.00    +0.022 A 
ATOM     15  C   LIG    1        5.899  -0.469  -3.561  0.00  0.00    +0.067 A 
ATOM     16 CL   LIG    1        6.861  -0.270  -4.992  0.00  0.00    -0.082 Cl
ATOM     17  C   LIG    1        6.225   0.222  -2.407  0.00  0.00    +0.124 A 
ATOM     18  C   LIG    1        5.455   0.067  -1.269  0.00  0.00    +0.038 A 
BRANCH  17  19
ATOM     19  S   LIG    1        7.615   1.303  -2.390  0.00  0.00    +0.057 S 
ATOM     20  O   LIG    1        7.701   1.834  -1.075  0.00  0.00    -0.153 OA
ATOM     21  O   LIG    1        7.500   2.131  -3.540  0.00  0.00    -0.153 OA
BRANCH  19  22
ATOM     22  N   LIG    1        8.965   0.370  -2.612  0.00  0.00    -0.203 NA
ATOM     23  H   LIG    1        8.976  -0.548  -2.299  0.00  0.00    +0.144 HD
ATOM     24  H   LIG    1        9.744   0.741  -3.056  0.00  0.00    +0.144 HD
ENDBRANCH  19  22
ENDBRANCH  17  19
ENDBRANCH  10  12
BRANCH  10  25
ATOM     25  O   LIG    1        4.348  -0.808   1.127  0.00  0.00    -0.364 OA
ATOM     26  H   LIG    1        5.087  -1.430   1.173  0.00  0.00    +0.213 HD
ENDBRANCH  10  25
TORSDOF 4
