REMARK  Name = ZINC00005936
REMARK                            x       y       z     vdW  Elec       q    Type
REMARK                         _______ _______ _______ _____ _____    ______ ____
ROOT
ATOM      1  N   LIG    1       -1.507  -0.312  -2.532  0.00  0.00    +0.383 N 
ATOM      2  H   LIG    1       -1.444  -1.317  -2.330  0.00  0.00    -0.081 HD
ATOM      3  C   LIG    1       -0.141   0.252  -2.588  0.00  0.00    -0.075 C 
ATOM      4  C   LIG    1        0.581  -0.059  -1.274  0.00  0.00    +0.021 C 
ATOM      5  C   LIG    1       -0.192   0.574  -0.113  0.00  0.00    +0.088 C 
ATOM      6  C   LIG    1       -1.626   0.037  -0.111  0.00  0.00    +0.021 C 
ATOM      7  C   LIG    1       -2.283   0.345  -1.459  0.00  0.00    -0.075 C 
ENDROOT
BRANCH   5   8
ATOM      8  C   LIG    1        0.479   0.222   1.190  0.00  0.00    -0.016 A 
ATOM      9  C   LIG    1        0.107  -0.920   1.873  0.00  0.00    +0.006 A 
ATOM     10  C   LIG    1        0.726  -1.245   3.065  0.00  0.00    +0.000 A 
ATOM     11  C   LIG    1        1.710  -0.422   3.580  0.00  0.00    +0.000 A 
ATOM     12  C   LIG    1        2.078   0.723   2.900  0.00  0.00    +0.000 A 
ATOM     13  C   LIG    1        1.463   1.046   1.704  0.00  0.00    +0.006 A 
ENDBRANCH   5   8
BRANCH   1  15
ATOM     14  C   LIG    1       -1.777   1.209  -4.460  0.00  0.00    -0.010 C 
ATOM     15  C   LIG    1       -2.184  -0.125  -3.831  0.00  0.00    -0.038 C 
BRANCH  15  16
ATOM     16  C   LIG    1       -1.780  -1.271  -4.761  0.00  0.00    +0.131 C 
BRANCH  16  17
ATOM     17  C   LIG    1       -2.215  -2.583  -4.160  0.00  0.00    -0.020 A 
ATOM     18  C   LIG    1       -1.456  -3.173  -3.166  0.00  0.00    +0.009 A 
ATOM     19  C   LIG    1       -1.856  -4.372  -2.609  0.00  0.00    +0.046 A 
ATOM     20  C   LIG    1       -3.014  -4.991  -3.056  0.00  0.00    +0.117 A 
ATOM     21  C   LIG    1       -3.772  -4.399  -4.057  0.00  0.00    +0.046 A 
ATOM     22  C   LIG    1       -3.371  -3.197  -4.606  0.00  0.00    +0.009 A 
BRANCH  20  23
ATOM     23  O   LIG    1       -3.407  -6.174  -2.515  0.00  0.00    -0.507 OA
ATOM     24  H   LIG    1       -3.052  -6.951  -2.969  0.00  0.00    +0.292 HD
ENDBRANCH  20  23
ENDBRANCH  16  17
BRANCH  16  25
ATOM     25  O   LIG    1       -0.361  -1.272  -4.927  0.00  0.00    -0.389 OA
ATOM     26  H   LIG    1        0.126  -1.585  -4.153  0.00  0.00    +0.210 HD
ENDBRANCH  16  25
ENDBRANCH  15  16
ENDBRANCH   1  15
BRANCH   5  27
ATOM     27  O   LIG    1       -0.214   1.994  -0.271  0.00  0.00    -0.384 OA
ATOM     28  H   LIG    1        0.663   2.402  -0.283  0.00  0.00    +0.211 HD
ENDBRANCH   5  27
TORSDOF 7
