REMARK  Name = ZINC00011665
REMARK                            x       y       z     vdW  Elec       q    Type
REMARK                         _______ _______ _______ _____ _____    ______ ____
ROOT
ATOM      1  N   LIG    1       -1.413  -2.002   0.005  0.00  0.00    -0.295 NA
ATOM      2  C   LIG    1       -0.867  -2.513  -1.254  0.00  0.00    +0.089 C 
ATOM      3  C   LIG    1       -0.613  -4.008  -1.165  0.00  0.00    +0.051 C 
ATOM      4  C   LIG    1       -1.680  -4.725  -0.388  0.00  0.00    -0.037 A 
ATOM      5  C   LIG    1       -1.648  -6.114  -0.362  0.00  0.00    +0.049 A 
ATOM      6  C   LIG    1       -2.616  -6.833   0.319  0.00  0.00    +0.118 A 
ATOM      7  C   LIG    1       -3.628  -6.163   0.987  0.00  0.00    +0.054 A 
ATOM      8  C   LIG    1       -3.653  -4.774   0.981  0.00  0.00    -0.006 A 
ATOM      9  C   LIG    1       -4.724  -4.041   1.696  0.00  0.00    +0.031 A 
ATOM     10  C   LIG    1       -5.895  -4.690   2.083  0.00  0.00    +0.166 A 
ATOM     11  C   LIG    1       -6.893  -3.974   2.737  0.00  0.00    +0.159 A 
ATOM     12  C   LIG    1       -6.718  -2.625   2.999  0.00  0.00    +0.049 A 
ATOM     13  C   LIG    1       -5.550  -1.985   2.621  0.00  0.00    +0.008 A 
ATOM     14  C   LIG    1       -4.551  -2.687   1.978  0.00  0.00    -0.034 A 
ATOM     15  C   LIG    1       -3.272  -2.002   1.582  0.00  0.00    +0.059 C 
ATOM     16  C   LIG    1       -2.680  -4.053   0.282  0.00  0.00    -0.019 A 
ATOM     17  C   LIG    1       -2.756  -2.549   0.253  0.00  0.00    +0.092 C 
ENDROOT
BRANCH   6  18
ATOM     18  O   LIG    1       -2.574  -8.191   0.331  0.00  0.00    -0.507 OA
ATOM     19  H   LIG    1       -2.065  -8.562   1.064  0.00  0.00    +0.292 HD
ENDBRANCH   6  18
BRANCH  10  20
ATOM     20  O   LIG    1       -6.062  -6.014   1.823  0.00  0.00    -0.503 OA
ATOM     21  H   LIG    1       -5.742  -6.596   2.526  0.00  0.00    +0.292 HD
ENDBRANCH  10  20
BRANCH  11  22
ATOM     22  O   LIG    1       -8.040  -4.598   3.119  0.00  0.00    -0.503 OA
ATOM     23  H   LIG    1       -8.004  -4.978   4.008  0.00  0.00    +0.292 HD
ENDBRANCH  11  22
BRANCH   1  24
ATOM     24  C   LIG    1       -1.433  -0.534   0.013  0.00  0.00    +0.085 C 
BRANCH  24  26
ATOM     25  C   LIG    1       -0.019   1.526   0.010  0.00  0.00    +0.005 C 
ATOM     26  C   LIG    1        0.002  -0.004   0.002  0.00  0.00    +0.012 C 
ENDBRANCH  24  26
ENDBRANCH   1  24
TORSDOF 5
