REMARK  Name = ZINC00030283
REMARK                            x       y       z     vdW  Elec       q    Type
REMARK                         _______ _______ _______ _____ _____    ______ ____
ROOT
ATOM      1  N   LIG    1        0.058  -4.117   0.121  0.00  0.00    -0.266 N 
ATOM      2  H   LIG    1        0.143  -4.570   0.975  0.00  0.00    +0.157 HD
ATOM      3  C   LIG    1       -0.040  -4.835  -1.015  0.00  0.00    +0.253 C 
ATOM      4  O   LIG    1       -0.053  -4.270  -2.092  0.00  0.00    -0.270 OA
ENDROOT
BRANCH   1   9
ATOM      5  C   LIG    1       -0.024   1.496  -0.184  0.00  0.00    +0.045 C 
ATOM      6  C   LIG    1       -0.002  -0.007  -0.065  0.00  0.00    -0.032 A 
ATOM      7  C   LIG    1        0.012  -0.610   1.186  0.00  0.00    +0.008 A 
ATOM      8  C   LIG    1        0.032  -1.992   1.251  0.00  0.00    +0.044 A 
ATOM      9  C   LIG    1        0.037  -2.725   0.070  0.00  0.00    +0.125 A 
ATOM     10  N   LIG    1        0.023  -2.113  -1.103  0.00  0.00    -0.240 NA
ATOM     11  C   LIG    1       -0.002  -0.797  -1.197  0.00  0.00    +0.116 A 
ENDBRANCH   1   9
BRANCH   3  12
ATOM     12  C   LIG    1       -0.131  -6.304  -0.953  0.00  0.00    +0.079 A 
ATOM     13  C   LIG    1       -0.122  -6.956   0.284  0.00  0.00    +0.020 A 
ATOM     14  C   LIG    1       -0.206  -8.318   0.341  0.00  0.00    +0.046 A 
ATOM     15  C   LIG    1       -0.301  -9.066  -0.829  0.00  0.00    +0.124 A 
ATOM     16  C   LIG    1       -0.312  -8.435  -2.064  0.00  0.00    +0.092 A 
ATOM     17  C   LIG    1       -0.233  -7.054  -2.134  0.00  0.00    +0.136 A 
BRANCH  15  18
ATOM     18  O   LIG    1       -0.384 -10.419  -0.760  0.00  0.00    -0.495 OA
ATOM     19  C   LIG    1       -0.367 -11.005   0.543  0.00  0.00    +0.277 C 
ENDBRANCH  15  18
BRANCH  17  20
ATOM     20  O   LIG    1       -0.248  -6.431  -3.339  0.00  0.00    -0.494 OA
ATOM     21  C   LIG    1       -0.354  -7.261  -4.498  0.00  0.00    +0.277 C 
ENDBRANCH  17  20
ENDBRANCH   3  12
TORSDOF 4
