REMARK  Name = ZINC00001624
REMARK                            x       y       z     vdW  Elec       q    Type
REMARK                         _______ _______ _______ _____ _____    ______ ____
ROOT
ATOM      1  C   LIG    1       -0.534   1.388   0.589  0.00  0.00    -0.095 C 
ATOM      2  N   LIG    1       -0.873  -0.034   0.744  0.00  0.00    +0.382 N 
ATOM      3  H   LIG    1       -1.868  -0.128   0.882  0.00  0.00    -0.081 HD
ATOM      4  C   LIG    1       -0.478  -0.764  -0.466  0.00  0.00    -0.066 C 
ATOM      5  C   LIG    1       -0.901  -2.229  -0.343  0.00  0.00    -0.015 C 
ATOM      6  C   LIG    1       -0.216  -2.852   0.877  0.00  0.00    -0.003 C 
ATOM      7  C   LIG    1       -0.576  -2.037   2.123  0.00  0.00    -0.015 C 
ATOM      8  C   LIG    1       -0.165  -0.579   1.909  0.00  0.00    -0.061 C 
ENDROOT
BRANCH   4   9
ATOM      9  C   LIG    1       -1.160  -0.138  -1.684  0.00  0.00    +0.021 C 
BRANCH   9  10
ATOM     10  C   LIG    1       -0.680  -0.842  -2.955  0.00  0.00    +0.143 C 
BRANCH  10  11
ATOM     11  C   LIG    1       -1.448  -0.316  -4.141  0.00  0.00    -0.019 A 
ATOM     12  C   LIG    1       -1.026   0.833  -4.783  0.00  0.00    +0.006 A 
ATOM     13  C   LIG    1       -1.731   1.315  -5.870  0.00  0.00    +0.000 A 
ATOM     14  C   LIG    1       -2.857   0.647  -6.316  0.00  0.00    +0.000 A 
ATOM     15  C   LIG    1       -3.278  -0.502  -5.674  0.00  0.00    +0.000 A 
ATOM     16  C   LIG    1       -2.571  -0.987  -4.589  0.00  0.00    +0.006 A 
ENDBRANCH  10  11
BRANCH  10  17
ATOM     17  O   LIG    1        0.714  -0.591  -3.141  0.00  0.00    -0.387 OA
ATOM     18  H   LIG    1        0.949   0.347  -3.133  0.00  0.00    +0.210 HD
ENDBRANCH  10  17
ENDBRANCH   9  10
ENDBRANCH   4   9
BRANCH   8  19
ATOM     19  C   LIG    1       -0.522   0.239   3.151  0.00  0.00    +0.064 C 
BRANCH  19  20
ATOM     20  C   LIG    1        0.319  -0.221   4.314  0.00  0.00    +0.162 C 
ATOM     21  O   LIG    1        1.197  -1.039   4.141  0.00  0.00    -0.292 OA
BRANCH  20  22
ATOM     22  C   LIG    1        0.074   0.322   5.660  0.00  0.00    +0.017 A 
ATOM     23  C   LIG    1       -0.942   1.262   5.864  0.00  0.00    +0.011 A 
ATOM     24  C   LIG    1       -1.165   1.766   7.128  0.00  0.00    +0.001 A 
ATOM     25  C   LIG    1       -0.387   1.345   8.193  0.00  0.00    +0.000 A 
ATOM     26  C   LIG    1        0.620   0.416   7.998  0.00  0.00    +0.001 A 
ATOM     27  C   LIG    1        0.852  -0.102   6.742  0.00  0.00    +0.011 A 
ENDBRANCH  20  22
ENDBRANCH  19  20
ENDBRANCH   8  19
TORSDOF 7
