REMARK  Name = ZINC00057058
REMARK                            x       y       z     vdW  Elec       q    Type
REMARK                         _______ _______ _______ _____ _____    ______ ____
ROOT
ATOM      1  C   LIG    1       -0.017   1.388   0.010  0.00  0.00    +0.047 A 
ATOM      2  C   LIG    1        1.159   2.106   0.002  0.00  0.00    +0.030 A 
ATOM      3  C   LIG    1        2.380   1.440  -0.013  0.00  0.00    +0.047 A 
ATOM      4  C   LIG    1        2.402   0.033  -0.021  0.00  0.00    +0.006 A 
ATOM      5  C   LIG    1        3.816  -0.349  -0.036  0.00  0.00    -0.024 A 
ATOM      6  C   LIG    1        4.531   0.787  -0.037  0.00  0.00    +0.087 A 
ATOM      7  C   LIG    1        1.204  -0.684  -0.013  0.00  0.00    +0.055 A 
ATOM      8  N   LIG    1        3.691   1.867  -0.023  0.00  0.00    -0.360 N 
ATOM      9  H   LIG    1        3.975   2.794  -0.021  0.00  0.00    +0.165 HD
ATOM     10  C   LIG    1        0.002  -0.004   0.002  0.00  0.00    +0.118 A 
ENDROOT
BRANCH  10  11
ATOM     11  O   LIG    1       -1.168  -0.697   0.009  0.00  0.00    -0.507 OA
ATOM     12  H   LIG    1       -1.515  -0.893  -0.872  0.00  0.00    +0.292 HD
ENDBRANCH  10  11
BRANCH   5  13
ATOM     13  C   LIG    1        4.364  -1.753  -0.049  0.00  0.00    +0.018 C 
BRANCH  13  14
ATOM     14  C   LIG    1        4.419  -2.266  -1.489  0.00  0.00    -0.082 C 
BRANCH  14  15
ATOM     15  N   LIG    1        4.954  -3.634  -1.502  0.00  0.00    +0.378 N 
ATOM     16  H   LIG    1        4.990  -3.973  -2.451  0.00  0.00    -0.090 HD
ATOM     17  H   LIG    1        4.355  -4.234  -0.954  0.00  0.00    -0.090 HD
ATOM     18  H   LIG    1        5.883  -3.636  -1.109  0.00  0.00    -0.090 HD
ENDBRANCH  14  15
ENDBRANCH  13  14
ENDBRANCH   5  13
TORSDOF 4
