REMARK  Name = ZINC00057674
REMARK                            x       y       z     vdW  Elec       q    Type
REMARK                         _______ _______ _______ _____ _____    ______ ____
ROOT
ATOM      1  C   LIG    1        3.694  -0.683  -0.038  0.00  0.00    +0.139 A 
ATOM      2  C   LIG    1        3.686  -2.043  -0.051  0.00  0.00    +0.098 A 
ATOM      3  C   LIG    1        4.913  -2.748  -0.068  0.00  0.00    +0.193 A 
ATOM      4  C   LIG    1        6.154  -1.948  -0.071  0.00  0.00    +0.064 A 
ATOM      5  C   LIG    1        7.408  -2.556  -0.088  0.00  0.00    +0.015 A 
ATOM      6  C   LIG    1        8.543  -1.774  -0.090  0.00  0.00    +0.001 A 
ATOM      7  C   LIG    1        8.439  -0.391  -0.076  0.00  0.00    +0.004 A 
ATOM      8  C   LIG    1        7.204   0.223  -0.059  0.00  0.00    +0.047 A 
ATOM      9  C   LIG    1        6.048  -0.548  -0.057  0.00  0.00    +0.139 A 
ATOM     10  O   LIG    1        4.944  -3.967  -0.080  0.00  0.00    -0.287 OA
ATOM     11  O   LIG    1        4.830   0.032  -0.046  0.00  0.00    -0.455 OA
ENDROOT
BRANCH   1  15
ATOM     12  C   LIG    1       -0.017   1.379   0.010  0.00  0.00    +0.000 A 
ATOM     13  C   LIG    1        1.168   2.094   0.002  0.00  0.00    +0.001 A 
ATOM     14  C   LIG    1        2.377   1.431  -0.013  0.00  0.00    +0.011 A 
ATOM     15  C   LIG    1        2.404   0.034  -0.021  0.00  0.00    +0.017 A 
ATOM     16  C   LIG    1        1.204  -0.681  -0.013  0.00  0.00    +0.011 A 
ATOM     17  C   LIG    1        0.002  -0.004   0.002  0.00  0.00    +0.001 A 
ENDBRANCH   1  15
TORSDOF 1
