REMARK  Name = ZINC00020442
REMARK                            x       y       z     vdW  Elec       q    Type
REMARK                         _______ _______ _______ _____ _____    ______ ____
ROOT
ATOM      1  C   LIG    1       -4.834   2.135   0.929  0.00  0.00    +0.046 C 
ATOM      2  C   LIG    1       -4.083   2.399   2.209  0.00  0.00    -0.024 A 
ATOM      3  C   LIG    1       -4.756   2.843   3.326  0.00  0.00    +0.005 A 
ATOM      4  C   LIG    1       -4.078   3.091   4.512  0.00  0.00    +0.001 A 
ATOM      5  C   LIG    1       -2.716   2.898   4.595  0.00  0.00    +0.015 A 
ATOM      6  C   LIG    1       -2.017   2.450   3.477  0.00  0.00    +0.065 A 
ATOM      7  C   LIG    1       -0.564   2.227   3.506  0.00  0.00    +0.259 A 
ATOM      8  O   LIG    1        0.086   2.427   4.515  0.00  0.00    -0.267 OA
ATOM      9  N   LIG    1        0.022   1.790   2.366  0.00  0.00    -0.311 N 
ATOM     10  H   LIG    1        1.008   1.628   2.347  0.00  0.00    +0.170 HD
ATOM     11  C   LIG    1       -0.718   1.572   1.248  0.00  0.00    +0.107 A 
ATOM     12  C   LIG    1       -0.013   1.086   0.008  0.00  0.00    +0.086 C 
ATOM     13  N   LIG    1       -2.001   1.765   1.191  0.00  0.00    -0.234 NA
ATOM     14  C   LIG    1       -2.704   2.196   2.268  0.00  0.00    +0.081 A 
ENDROOT
TORSDOF 0
