REMARK  Name = ZINC00058258
REMARK                            x       y       z     vdW  Elec       q    Type
REMARK                         _______ _______ _______ _____ _____    ______ ____
ROOT
ATOM      1  C   LIG    1        0.606  -0.608  -1.056  0.00  0.00    +0.162 A 
ATOM      2  C   LIG    1        1.170   0.158  -2.058  0.00  0.00    +0.057 A 
ATOM      3  C   LIG    1        1.791  -0.467  -3.146  0.00  0.00    -0.021 A 
ATOM      4  C   LIG    1        1.837  -1.865  -3.212  0.00  0.00    +0.012 A 
ATOM      5  C   LIG    1        1.272  -2.620  -2.209  0.00  0.00    +0.050 A 
ATOM      6  C   LIG    1        0.661  -1.999  -1.127  0.00  0.00    +0.158 A 
ENDROOT
BRANCH   1   8
ATOM      7  C   LIG    1       -0.017   1.425   0.010  0.00  0.00    +0.277 C 
ATOM      8  O   LIG    1        0.002  -0.004   0.002  0.00  0.00    -0.491 OA
ENDBRANCH   1   8
BRANCH   3   9
ATOM      9  C   LIG    1        2.393   0.341  -4.214  0.00  0.00    +0.015 C 
ATOM     10  C   LIG    1        2.993  -0.265  -5.265  0.00  0.00    +0.092 C 
BRANCH  10  11
ATOM     11  C   LIG    1        3.571   0.513  -6.294  0.00  0.00    +0.330 C 
ATOM     12  O   LIG    1        3.530   1.736  -6.234  0.00  0.00    -0.246 OA
BRANCH  11  13
ATOM     13  O   LIG    1        4.115  -0.036  -7.245  0.00  0.00    -0.478 OA
ATOM     14  H   LIG    1        4.146  -0.971  -7.291  0.00  0.00    +0.295 HD
ENDBRANCH  11  13
ENDBRANCH  10  11
ENDBRANCH   3   9
BRANCH   6  15
ATOM     15  O   LIG    1        0.111  -2.750  -0.138  0.00  0.00    -0.503 OA
ATOM     16  H   LIG    1       -0.818  -2.975  -0.286  0.00  0.00    +0.292 HD
ENDBRANCH   6  15
TORSDOF 5
