REMARK  Name = ZINC00006228
REMARK                            x       y       z     vdW  Elec       q    Type
REMARK                         _______ _______ _______ _____ _____    ______ ____
ROOT
ATOM      1  C   LIG    1       -0.013   1.086   0.008  0.00  0.00    +0.260 C 
ATOM      2  C   LIG    1       -0.653   1.622  -1.292  0.00  0.00    +0.246 C 
ATOM      3  F   LIG    1       -1.354   2.806  -1.040  0.00  0.00    -0.238 F 
ATOM      4  C   LIG    1        0.552   1.893  -2.220  0.00  0.00    +0.184 C 
ATOM      5  C   LIG    1        1.778   1.488  -1.371  0.00  0.00    +0.178 C 
ATOM      6  O   LIG    1        1.334   1.607  -0.002  0.00  0.00    -0.345 OA
ENDROOT
BRANCH   1  10
ATOM      7  C   LIG    1       -2.761   0.184   4.001  0.00  0.00    +0.051 C 
ATOM      8  C   LIG    1       -2.052   1.146   3.082  0.00  0.00    +0.030 A 
ATOM      9  C   LIG    1       -1.385   0.692   2.000  0.00  0.00    +0.102 A 
ATOM     10  N   LIG    1       -0.742   1.579   1.179  0.00  0.00    -0.271 N 
ATOM     11  C   LIG    1       -0.777   2.899   1.436  0.00  0.00    +0.331 A 
ATOM     12  N   LIG    1       -1.439   3.379   2.504  0.00  0.00    -0.275 N 
ATOM     13  H   LIG    1       -1.456   4.363   2.679  0.00  0.00    +0.173 HD
ATOM     14  O   LIG    1       -0.202   3.669   0.691  0.00  0.00    -0.246 OA
ATOM     15  C   LIG    1       -2.081   2.538   3.340  0.00  0.00    +0.257 A 
ATOM     16  O   LIG    1       -2.681   2.971   4.308  0.00  0.00    -0.267 OA
ENDBRANCH   1  10
BRANCH   4  17
ATOM     17  O   LIG    1        0.469   1.086  -3.396  0.00  0.00    -0.386 OA
ATOM     18  H   LIG    1       -0.283   1.298  -3.966  0.00  0.00    +0.210 HD
ENDBRANCH   4  17
BRANCH   5  19
ATOM     19  C   LIG    1        2.946   2.440  -1.637  0.00  0.00    +0.190 C 
BRANCH  19  20
ATOM     20  O   LIG    1        4.082   2.023  -0.876  0.00  0.00    -0.392 OA
ATOM     21  H   LIG    1        4.862   2.582  -0.995  0.00  0.00    +0.210 HD
ENDBRANCH  19  20
ENDBRANCH   5  19
TORSDOF 4
