REMARK  Name = ZINC00003941
REMARK                            x       y       z     vdW  Elec       q    Type
REMARK                         _______ _______ _______ _____ _____    ______ ____
ROOT
ATOM      1  C   LIG    1       -2.662  -4.677  -0.000  0.00  0.00    -0.017 A 
ATOM      2  C   LIG    1       -2.676  -5.743  -1.004  0.00  0.00    +0.003 A 
ATOM      3  C   LIG    1       -2.874  -5.773  -2.386  0.00  0.00    +0.010 A 
ATOM      4  C   LIG    1       -2.824  -6.964  -3.053  0.00  0.00    +0.001 A 
ATOM      5  C   LIG    1       -2.578  -8.146  -2.368  0.00  0.00    +0.002 A 
ATOM      6  C   LIG    1       -2.380  -8.140  -1.004  0.00  0.00    +0.026 A 
ATOM      7  C   LIG    1       -2.427  -6.938  -0.305  0.00  0.00    +0.047 A 
ATOM      8  N   LIG    1       -2.274  -6.608   1.023  0.00  0.00    -0.357 N 
ATOM      9  H   LIG    1       -2.093  -7.239   1.737  0.00  0.00    +0.166 HD
ATOM     10  C   LIG    1       -2.413  -5.256   1.185  0.00  0.00    +0.025 A 
ENDROOT
BRANCH   1  11
ATOM     11  C   LIG    1       -2.880  -3.207  -0.251  0.00  0.00    +0.056 C 
BRANCH  11  12
ATOM     12  C   LIG    1       -1.530  -2.521  -0.470  0.00  0.00    +0.109 C 
BRANCH  12  15
ATOM     13  C   LIG    1       -0.905   1.187  -1.186  0.00  0.00    +0.109 C 
ATOM     14  C   LIG    1       -0.687  -0.283  -0.935  0.00  0.00    +0.210 C 
ATOM     15  N   LIG    1       -1.742  -1.092  -0.714  0.00  0.00    -0.315 N 
ATOM     16  H   LIG    1       -2.641  -0.729  -0.716  0.00  0.00    +0.149 HD
ATOM     17  O   LIG    1        0.437  -0.737  -0.932  0.00  0.00    -0.276 OA
ENDBRANCH  12  15
ENDBRANCH  11  12
ENDBRANCH   1  11
BRANCH  10  18
ATOM     18  C   LIG    1       -2.304  -4.527   2.499  0.00  0.00    +0.088 C 
BRANCH  18  19
ATOM     19  C   LIG    1       -3.674  -4.386   3.110  0.00  0.00    -0.042 A 
ATOM     20  C   LIG    1       -4.397  -3.222   2.926  0.00  0.00    +0.004 A 
ATOM     21  C   LIG    1       -5.654  -3.093   3.487  0.00  0.00    +0.000 A 
ATOM     22  C   LIG    1       -6.188  -4.128   4.232  0.00  0.00    +0.000 A 
ATOM     23  C   LIG    1       -5.465  -5.292   4.415  0.00  0.00    +0.000 A 
ATOM     24  C   LIG    1       -4.210  -5.423   3.850  0.00  0.00    +0.004 A 
ENDBRANCH  18  19
ENDBRANCH  10  18
TORSDOF 5
