REMARK  Name = ZINC00007778
REMARK                            x       y       z     vdW  Elec       q    Type
REMARK                         _______ _______ _______ _____ _____    ______ ____
ROOT
ATOM      1  O   LIG    1        0.052  -2.758   2.378  0.00  0.00    -0.451 OA
ENDROOT
BRANCH   1   7
ATOM      2  C   LIG    1       -0.018   1.503   0.010  0.00  0.00    +0.044 C 
ATOM      3  C   LIG    1        0.002  -0.004   0.002  0.00  0.00    -0.043 A 
ATOM      4  C   LIG    1        0.006  -0.683  -1.202  0.00  0.00    +0.049 A 
ATOM      5  C   LIG    1        0.025  -2.068  -1.223  0.00  0.00    +0.135 A 
ATOM      6  C   LIG    1        0.041  -2.783  -0.014  0.00  0.00    +0.142 A 
ATOM      7  C   LIG    1        0.037  -2.082   1.204  0.00  0.00    +0.146 A 
ATOM      8  C   LIG    1        0.023  -0.696   1.198  0.00  0.00    +0.050 A 
BRANCH   5   9
ATOM      9  O   LIG    1        0.028  -2.731  -2.406  0.00  0.00    -0.506 OA
ATOM     10  H   LIG    1        0.912  -2.912  -2.753  0.00  0.00    +0.292 HD
ENDBRANCH   5   9
BRANCH   6  11
ATOM     11  C   LIG    1        0.061  -4.250  -0.022  0.00  0.00    +0.344 C 
ATOM     12  O   LIG    1        0.064  -4.856  -1.085  0.00  0.00    -0.245 OA
BRANCH  11  13
ATOM     13  O   LIG    1        0.074  -4.868   1.034  0.00  0.00    -0.477 OA
ATOM     14  H   LIG    1        0.072  -4.404   1.848  0.00  0.00    +0.295 HD
ENDBRANCH  11  13
ENDBRANCH   6  11
ENDBRANCH   1   7
BRANCH   1  15
ATOM     15  C   LIG    1        0.048  -2.037   3.529  0.00  0.00    +0.184 A 
ATOM     16  C   LIG    1        1.256  -1.642   4.116  0.00  0.00    +0.108 A 
ATOM     17  C   LIG    1        1.242  -0.900   5.301  0.00  0.00    +0.064 A 
ATOM     18  C   LIG    1        0.037  -0.560   5.887  0.00  0.00    +0.121 A 
ATOM     19  C   LIG    1       -1.161  -0.953   5.303  0.00  0.00    +0.094 A 
ATOM     20  C   LIG    1       -1.158  -1.683   4.127  0.00  0.00    +0.166 A 
BRANCH  16  21
ATOM     21  C   LIG    1        2.539  -2.008   3.487  0.00  0.00    +0.343 C 
ATOM     22  O   LIG    1        2.548  -2.653   2.458  0.00  0.00    -0.245 OA
BRANCH  21  23
ATOM     23  O   LIG    1        3.700  -1.626   4.054  0.00  0.00    -0.464 OA
ATOM     24  C   LIG    1        4.904  -2.015   3.391  0.00  0.00    +0.280 C 
ENDBRANCH  21  23
ENDBRANCH  16  21
BRANCH  18  25
ATOM     25  O   LIG    1        0.024   0.162   7.039  0.00  0.00    -0.507 OA
ATOM     26  H   LIG    1        0.003   1.119   6.904  0.00  0.00    +0.292 HD
ENDBRANCH  18  25
BRANCH  20  27
ATOM     27  O   LIG    1       -2.335  -2.059   3.558  0.00  0.00    -0.491 OA
ATOM     28  C   LIG    1       -3.534  -1.661   4.224  0.00  0.00    +0.277 C 
ENDBRANCH  20  27
ENDBRANCH   1  15
TORSDOF 9
