REMARK  Name = ZINC00001630
REMARK                            x       y       z     vdW  Elec       q    Type
REMARK                         _______ _______ _______ _____ _____    ______ ____
ROOT
ATOM      1  C   LIG    1        2.505   1.060  -0.141  0.00  0.00    +0.185 A 
ATOM      2  C   LIG    1        1.253   1.665   0.086  0.00  0.00    +0.032 A 
ATOM      3  C   LIG    1        0.083   0.895   0.189  0.00  0.00    +0.014 A 
ATOM      4  C   LIG    1       -1.113   1.510   0.403  0.00  0.00    +0.021 A 
ATOM      5  C   LIG    1       -1.193   2.896   0.533  0.00  0.00    +0.042 A 
ATOM      6 CL   LIG    1       -2.736   3.641   0.812  0.00  0.00    -0.084 Cl
ATOM      7  C   LIG    1       -0.079   3.674   0.438  0.00  0.00    +0.032 A 
ATOM      8  C   LIG    1        1.171   3.075   0.212  0.00  0.00    +0.033 A 
ATOM      9  C   LIG    1        2.342   3.851   0.109  0.00  0.00    +0.185 A 
ATOM     10  C   LIG    1        3.555   3.234  -0.113  0.00  0.00    +0.209 A 
ATOM     11  C   LIG    1        3.636   1.842  -0.238  0.00  0.00    +0.209 A 
ENDROOT
BRANCH  10  12
ATOM     12  O   LIG    1        4.684   3.986  -0.213  0.00  0.00    -0.488 OA
ATOM     13  C   LIG    1        5.114   4.341  -1.528  0.00  0.00    +0.277 C 
ENDBRANCH  10  12
BRANCH  11  14
ATOM     14  O   LIG    1        4.844   1.256  -0.457  0.00  0.00    -0.488 OA
ATOM     15  C   LIG    1        5.599   0.875   0.695  0.00  0.00    +0.277 C 
ENDBRANCH  11  14
BRANCH   1  16
ATOM     16  O   LIG    1        2.597  -0.292  -0.265  0.00  0.00    -0.422 OA
BRANCH  16  18
ATOM     17  C   LIG    1        2.562  -2.289  -1.715  0.00  0.00    +0.136 C 
ATOM     18  C   LIG    1        2.471  -0.800  -1.500  0.00  0.00    +0.309 C 
ATOM     19  O   LIG    1        2.284  -0.062  -2.443  0.00  0.00    -0.251 OA
ENDBRANCH  16  18
ENDBRANCH   1  16
BRANCH   9  20
ATOM     20  O   LIG    1        2.276   5.205   0.227  0.00  0.00    -0.422 OA
BRANCH  20  21
ATOM     21  C   LIG    1        2.079   5.906  -0.900  0.00  0.00    +0.309 C 
ATOM     22  C   LIG    1        1.995   7.410  -0.847  0.00  0.00    +0.136 C 
ATOM     23  O   LIG    1        1.968   5.330  -1.961  0.00  0.00    -0.251 OA
ENDBRANCH  20  21
ENDBRANCH   9  20
TORSDOF 6
