REMARK  Name = ZINC00007301
REMARK                            x       y       z     vdW  Elec       q    Type
REMARK                         _______ _______ _______ _____ _____    ______ ____
ROOT
ATOM      1  C   LIG    1       -2.504   1.003   0.019  0.00  0.00    +0.072 A 
ATOM      2  N   LIG    1       -2.742  -0.161  -0.613  0.00  0.00    -0.345 N 
ATOM      3  H   LIG    1       -2.061  -0.675  -1.183  0.00  0.00    +0.167 HD
ATOM      4  C   LIG    1       -3.971  -0.535  -0.390  0.00  0.00    +0.171 A 
ATOM      5  N   LIG    1       -4.587   0.377   0.392  0.00  0.00    -0.345 N 
ATOM      6  H   LIG    1       -5.533   0.340   0.713  0.00  0.00    +0.167 HD
ATOM      7  C   LIG    1       -3.671   1.368   0.666  0.00  0.00    +0.072 A 
ENDROOT
BRANCH   1  14
ATOM      8  C   LIG    1       -0.013   1.076   0.008  0.00  0.00    +0.013 A 
ATOM      9  C   LIG    1        1.172   1.783   0.000  0.00  0.00    +0.039 A 
ATOM     10  C   LIG    1        1.154   3.168   0.008  0.00  0.00    +0.123 A 
ATOM     11  F   LIG    1        2.317   3.857  -0.001  0.00  0.00    -0.205 F 
ATOM     12  C   LIG    1       -0.052   3.850   0.023  0.00  0.00    +0.039 A 
ATOM     13  C   LIG    1       -1.241   3.152   0.031  0.00  0.00    +0.013 A 
ATOM     14  C   LIG    1       -1.229   1.758   0.017  0.00  0.00    +0.001 A 
ENDBRANCH   1  14
BRANCH   7  15
ATOM     15  C   LIG    1       -3.891   2.576   1.484  0.00  0.00    +0.003 A 
ATOM     16  C   LIG    1       -2.947   2.982   2.438  0.00  0.00    +0.030 A 
ATOM     17  C   LIG    1       -3.191   4.120   3.177  0.00  0.00    +0.111 A 
ATOM     18  N   LIG    1       -4.298   4.817   3.003  0.00  0.00    -0.263 NA
ATOM     19  C   LIG    1       -5.215   4.468   2.120  0.00  0.00    +0.111 A 
ATOM     20  C   LIG    1       -5.051   3.347   1.334  0.00  0.00    +0.030 A 
ENDBRANCH   7  15
TORSDOF 2
