REMARK  Name = ZINC00008750
REMARK                            x       y       z     vdW  Elec       q    Type
REMARK                         _______ _______ _______ _____ _____    ______ ____
ROOT
ATOM      1  C   LIG    1        5.393  -1.648  -1.750  0.00  0.00    +0.024 A 
ATOM      2  C   LIG    1        5.786  -1.875  -3.074  0.00  0.00    +0.048 A 
ATOM      3  C   LIG    1        6.967  -2.531  -3.338  0.00  0.00    +0.167 A 
ATOM      4  C   LIG    1        7.767  -2.978  -2.294  0.00  0.00    +0.189 A 
ATOM      5  C   LIG    1        7.380  -2.760  -0.971  0.00  0.00    +0.161 A 
ATOM      6  C   LIG    1        6.199  -2.099  -0.697  0.00  0.00    +0.060 A 
ENDROOT
BRANCH   1   7
ATOM      7  C   LIG    1        4.135  -0.945  -1.465  0.00  0.00    +0.168 C 
ATOM      8  O   LIG    1        3.438  -0.555  -2.378  0.00  0.00    -0.292 OA
BRANCH   7   9
ATOM      9  C   LIG    1        3.711  -0.707  -0.039  0.00  0.00    +0.114 C 
BRANCH   9  13
ATOM     10  C   LIG    1       -0.017   1.378   0.010  0.00  0.00    +0.000 A 
ATOM     11  C   LIG    1        1.171   2.086   0.002  0.00  0.00    +0.000 A 
ATOM     12  C   LIG    1        2.377   1.411  -0.014  0.00  0.00    +0.004 A 
ATOM     13  C   LIG    1        2.396   0.029  -0.022  0.00  0.00    -0.040 A 
ATOM     14  C   LIG    1        1.208  -0.679  -0.014  0.00  0.00    +0.004 A 
ATOM     15  C   LIG    1        0.002  -0.004   0.002  0.00  0.00    +0.000 A 
ENDBRANCH   9  13
ENDBRANCH   7   9
ENDBRANCH   1   7
BRANCH   3  16
ATOM     16  N   LIG    1        7.384  -2.766  -4.739  0.00  0.00    +0.010 N 
ATOM     17  O   LIG    1        6.684  -2.375  -5.656  0.00  0.00    -0.130 OA
BRANCH  16  18
ATOM     18  O   LIG    1        8.426  -3.350  -4.974  0.00  0.00    -0.396 OA
ATOM     19  H   LIG    1        8.964  -3.651  -4.269  0.00  0.00    +0.329 HD
ENDBRANCH  16  18
ENDBRANCH   3  16
BRANCH   4  20
ATOM     20  O   LIG    1        8.928  -3.628  -2.560  0.00  0.00    -0.502 OA
ATOM     21  H   LIG    1        9.189  -3.775  -3.448  0.00  0.00    +0.292 HD
ENDBRANCH   4  20
BRANCH   5  22
ATOM     22  O   LIG    1        8.165  -3.199   0.048  0.00  0.00    -0.503 OA
ATOM     23  H   LIG    1        7.961  -4.097   0.343  0.00  0.00    +0.292 HD
ENDBRANCH   5  22
TORSDOF 7
