REMARK  Name = ZINC00014036
REMARK                            x       y       z     vdW  Elec       q    Type
REMARK                         _______ _______ _______ _____ _____    ______ ____
ROOT
ATOM      1  C   LIG    1       -1.263  -0.760   0.011  0.00  0.00    +0.008 C 
ATOM      2  C   LIG    1       -2.435  -0.106   0.026  0.00  0.00    +0.009 C 
ENDROOT
BRANCH   1   8
ATOM      3  C   LIG    1       -0.017   1.393   0.010  0.00  0.00    +0.012 A 
ATOM      4  C   LIG    1        1.168   2.099   0.002  0.00  0.00    +0.050 A 
ATOM      5  C   LIG    1        2.380   1.425  -0.013  0.00  0.00    +0.158 A 
ATOM      6  C   LIG    1        2.407   0.031  -0.021  0.00  0.00    +0.159 A 
ATOM      7  C   LIG    1        1.224  -0.683  -0.014  0.00  0.00    +0.057 A 
ATOM      8  C   LIG    1        0.002  -0.004   0.002  0.00  0.00    -0.021 A 
BRANCH   5   9
ATOM      9  O   LIG    1        3.545   2.125  -0.021  0.00  0.00    -0.503 OA
ATOM     10  H   LIG    1        3.891   2.323   0.860  0.00  0.00    +0.292 HD
ENDBRANCH   5   9
BRANCH   6  11
ATOM     11  O   LIG    1        3.598  -0.626  -0.036  0.00  0.00    -0.503 OA
ATOM     12  H   LIG    1        3.951  -0.821   0.843  0.00  0.00    +0.292 HD
ENDBRANCH   6  11
ENDBRANCH   1   8
BRANCH   2  13
ATOM     13  C   LIG    1       -3.700  -0.863   0.034  0.00  0.00    -0.018 A 
ATOM     14  C   LIG    1       -3.682  -2.259   0.032  0.00  0.00    +0.053 A 
ATOM     15  C   LIG    1       -4.873  -2.965   0.041  0.00  0.00    +0.121 A 
ATOM     16  C   LIG    1       -6.084  -2.287   0.051  0.00  0.00    +0.090 A 
ATOM     17  C   LIG    1       -6.108  -0.900   0.052  0.00  0.00    +0.121 A 
ATOM     18  C   LIG    1       -4.922  -0.185   0.050  0.00  0.00    +0.053 A 
BRANCH  15  19
ATOM     19  O   LIG    1       -4.857  -4.324   0.039  0.00  0.00    -0.507 OA
ATOM     20  H   LIG    1       -4.845  -4.718   0.922  0.00  0.00    +0.292 HD
ENDBRANCH  15  19
BRANCH  17  21
ATOM     21  O   LIG    1       -7.297  -0.241   0.061  0.00  0.00    -0.507 OA
ATOM     22  H   LIG    1       -7.634  -0.052   0.947  0.00  0.00    +0.292 HD
ENDBRANCH  17  21
ENDBRANCH   2  13
TORSDOF 6
