REMARK  Name = ZINC00002119
REMARK                            x       y       z     vdW  Elec       q    Type
REMARK                         _______ _______ _______ _____ _____    ______ ____
ROOT
ATOM      1  C   LIG    1        0.611   0.320  -1.204  0.00  0.00    +0.026 A 
ATOM      2  C   LIG    1        1.796   1.029  -1.208  0.00  0.00    +0.030 A 
ATOM      3  C   LIG    1        2.377   1.415  -0.014  0.00  0.00    +0.105 A 
ATOM      4  C   LIG    1        1.774   1.094   1.188  0.00  0.00    +0.030 A 
ATOM      5  C   LIG    1        0.588   0.386   1.200  0.00  0.00    +0.026 A 
ATOM      6  C   LIG    1        0.002  -0.004   0.002  0.00  0.00    +0.051 A 
ENDROOT
BRANCH   6   7
ATOM      7  N   LIG    1       -1.197  -0.720   0.010  0.00  0.00    -0.207 N 
ATOM      8  C   LIG    1       -2.403  -0.173   0.650  0.00  0.00    +0.131 C 
ATOM      9  C   LIG    1       -2.899  -1.146   1.718  0.00  0.00    +0.022 C 
ATOM     10  C   LIG    1       -3.346  -2.462   1.084  0.00  0.00    +0.026 C 
ATOM     11  C   LIG    1       -2.124  -3.231   0.569  0.00  0.00    +0.189 C 
ATOM     12  S   LIG    1       -1.308  -2.217  -0.710  0.00  0.00    +0.045 S 
ATOM     13  O   LIG    1       -2.172  -2.029  -1.822  0.00  0.00    -0.155 OA
ATOM     14  O   LIG    1        0.037  -2.639  -0.894  0.00  0.00    -0.155 OA
ENDBRANCH   6   7
BRANCH   3  15
ATOM     15  S   LIG    1        3.890   2.318  -0.024  0.00  0.00    +0.056 S 
ATOM     16  O   LIG    1        4.533   2.020  -1.256  0.00  0.00    -0.153 OA
ATOM     17  O   LIG    1        4.509   2.088   1.234  0.00  0.00    -0.153 OA
BRANCH  15  18
ATOM     18  N   LIG    1        3.500   3.927  -0.072  0.00  0.00    -0.204 NA
ATOM     19  H   LIG    1        4.202   4.596  -0.084  0.00  0.00    +0.144 HD
ATOM     20  H   LIG    1        2.569   4.200  -0.088  0.00  0.00    +0.144 HD
ENDBRANCH  15  18
ENDBRANCH   3  15
TORSDOF 3
