REMARK  Name = ZINC00008126
REMARK                            x       y       z     vdW  Elec       q    Type
REMARK                         _______ _______ _______ _____ _____    ______ ____
ROOT
ATOM      1  C   LIG    1       -2.675   3.569   0.110  0.00  0.00    +0.192 C 
ATOM      2  C   LIG    1       -1.233   3.158   0.052  0.00  0.00    +0.019 A 
ATOM      3  C   LIG    1       -0.045   3.851   0.036  0.00  0.00    +0.009 A 
ATOM      4  C   LIG    1        1.158   3.166   0.009  0.00  0.00    +0.000 A 
ATOM      5  C   LIG    1        1.172   1.783   0.000  0.00  0.00    +0.001 A 
ATOM      6  C   LIG    1       -0.013   1.076   0.008  0.00  0.00    +0.013 A 
ATOM      7  C   LIG    1       -1.229   1.758   0.017  0.00  0.00    +0.045 A 
ATOM      8  C   LIG    1       -2.633   1.292   0.006  0.00  0.00    +0.250 C 
ATOM      9  O   LIG    1       -2.986   0.133   0.108  0.00  0.00    -0.270 OA
ATOM     10  O   LIG    1       -3.053   4.470  -0.932  0.00  0.00    -0.346 OA
ATOM     11  C   LIG    1       -4.395   4.126  -1.333  0.00  0.00    +0.182 C 
ATOM     12  C   LIG    1       -4.774   2.870  -0.509  0.00  0.00    +0.139 C 
ATOM     13  N   LIG    1       -3.451   2.332  -0.138  0.00  0.00    -0.259 N 
ENDROOT
BRANCH   1  17
ATOM     14  C   LIG    1       -3.594   5.241   3.932  0.00  0.00    +0.000 A 
ATOM     15  C   LIG    1       -3.172   6.061   2.902  0.00  0.00    +0.000 A 
ATOM     16  C   LIG    1       -2.874   5.520   1.666  0.00  0.00    +0.008 A 
ATOM     17  C   LIG    1       -2.999   4.159   1.458  0.00  0.00    +0.007 A 
ATOM     18  C   LIG    1       -3.427   3.340   2.486  0.00  0.00    +0.008 A 
ATOM     19  C   LIG    1       -3.719   3.880   3.725  0.00  0.00    +0.000 A 
ENDBRANCH   1  17
TORSDOF 1
