REMARK  Name = ZINC00059752
REMARK                            x       y       z     vdW  Elec       q    Type
REMARK                         _______ _______ _______ _____ _____    ______ ____
ROOT
ATOM      1  C   LIG    1        3.653   2.155  -0.022  0.00  0.00    +0.165 C 
ATOM      2  O   LIG    1        4.709   1.560  -0.035  0.00  0.00    -0.292 OA
ENDROOT
BRANCH   1   5
ATOM      3  C   LIG    1       -0.017   1.380   0.010  0.00  0.00    +0.003 A 
ATOM      4  C   LIG    1        1.166   2.089   0.002  0.00  0.00    +0.011 A 
ATOM      5  C   LIG    1        2.386   1.406  -0.013  0.00  0.00    +0.020 A 
ATOM      6  C   LIG    1        2.397   0.007  -0.021  0.00  0.00    +0.044 A 
ATOM      7  C   LIG    1        1.206  -0.687  -0.013  0.00  0.00    +0.122 A 
ATOM      8  C   LIG    1        0.002  -0.004   0.002  0.00  0.00    +0.032 A 
BRANCH   7   9
ATOM      9  N   LIG    1        1.215  -2.167  -0.021  0.00  0.00    +0.006 N 
ATOM     10  O   LIG    1        2.265  -2.765  -0.035  0.00  0.00    -0.130 OA
BRANCH   9  11
ATOM     11  O   LIG    1        0.172  -2.778  -0.015  0.00  0.00    -0.396 OA
ATOM     12  H   LIG    1       -0.643  -2.314  -0.004  0.00  0.00    +0.329 HD
ENDBRANCH   9  11
ENDBRANCH   7   9
ENDBRANCH   1   5
BRANCH   1  13
ATOM     13  C   LIG    1        3.637   3.662  -0.014  0.00  0.00    +0.098 C 
BRANCH  13  14
ATOM     14  C   LIG    1        5.074   4.188  -0.025  0.00  0.00    +0.109 C 
BRANCH  14  15
ATOM     15  N   LIG    1        5.059   5.652  -0.018  0.00  0.00    -0.343 N 
ATOM     16  H   LIG    1        4.214   6.128  -0.007  0.00  0.00    +0.146 HD
BRANCH  15  17
ATOM     17  C   LIG    1        6.261   6.364  -0.026  0.00  0.00    +0.030 A 
ATOM     18  C   LIG    1        7.472   5.683  -0.047  0.00  0.00    +0.023 A 
ATOM     19  C   LIG    1        8.659   6.388  -0.055  0.00  0.00    +0.005 A 
ATOM     20  C   LIG    1        8.645   7.770  -0.043  0.00  0.00    +0.038 A 
ATOM     21  C   LIG    1        7.440   8.453  -0.022  0.00  0.00    +0.125 A 
ATOM     22  F   LIG    1        7.430   9.804  -0.009  0.00  0.00    -0.205 F 
ATOM     23  C   LIG    1        6.248   7.752  -0.019  0.00  0.00    +0.061 A 
ENDBRANCH  15  17
ENDBRANCH  14  15
ENDBRANCH  13  14
ENDBRANCH   1  13
TORSDOF 7
