REMARK  Name = ZINC00016978
REMARK                            x       y       z     vdW  Elec       q    Type
REMARK                         _______ _______ _______ _____ _____    ______ ____
ROOT
ATOM      1  C   LIG    1        1.139   5.803   0.005  0.00  0.00    +0.162 A 
ATOM      2  C   LIG    1       -0.055   5.138   0.013  0.00  0.00    +0.062 A 
ATOM      3  C   LIG    1       -0.073   3.748   0.176  0.00  0.00    +0.044 A 
ATOM      4  C   LIG    1        1.144   3.039   0.332  0.00  0.00    +0.080 A 
ATOM      5  N   LIG    1        1.098   1.706   0.487  0.00  0.00    -0.235 NA
ATOM      6  C   LIG    1       -0.053   1.076   0.493  0.00  0.00    +0.223 A 
ATOM      7  N   LIG    1       -1.213   1.696   0.346  0.00  0.00    -0.220 NA
ATOM      8  C   LIG    1        2.356   3.740   0.321  0.00  0.00    +0.078 A 
ATOM      9  C   LIG    1       -1.282   3.012   0.191  0.00  0.00    +0.134 A 
ATOM     10  C   LIG    1        2.346   5.108   0.159  0.00  0.00    +0.164 A 
ENDROOT
BRANCH   1  12
ATOM     11  C   LIG    1       -0.108   7.804  -0.304  0.00  0.00    +0.277 C 
ATOM     12  O   LIG    1        1.155   7.153  -0.153  0.00  0.00    -0.491 OA
ENDBRANCH   1  12
BRANCH   9  13
ATOM     13  N   LIG    1       -2.499   3.645   0.044  0.00  0.00    -0.299 N 
ATOM     14  H   LIG    1       -2.541   4.614   0.008  0.00  0.00    +0.154 HD
BRANCH  13  15
ATOM     15  C   LIG    1       -3.673   2.890  -0.055  0.00  0.00    +0.034 A 
ATOM     16  C   LIG    1       -3.650   1.646  -0.672  0.00  0.00    +0.026 A 
ATOM     17  C   LIG    1       -4.809   0.900  -0.764  0.00  0.00    +0.041 A 
ATOM     18  C   LIG    1       -5.995   1.396  -0.251  0.00  0.00    +0.142 A 
ATOM     19  F   LIG    1       -7.129   0.667  -0.347  0.00  0.00    -0.204 F 
ATOM     20  C   LIG    1       -6.022   2.639   0.361  0.00  0.00    +0.078 A 
ATOM     21 CL   LIG    1       -7.511   3.258   1.004  0.00  0.00    -0.081 Cl
ATOM     22  C   LIG    1       -4.864   3.387   0.460  0.00  0.00    +0.046 A 
ENDBRANCH  13  15
ENDBRANCH   9  13
BRANCH  10  23
ATOM     23  O   LIG    1        3.521   5.791   0.147  0.00  0.00    -0.491 OA
ATOM     24  C   LIG    1        4.717   5.027   0.309  0.00  0.00    +0.277 C 
ENDBRANCH  10  23
TORSDOF 4
