REMARK  Name = ZINC00057354
REMARK                            x       y       z     vdW  Elec       q    Type
REMARK                         _______ _______ _______ _____ _____    ______ ____
ROOT
ATOM      1  C   LIG    1        3.604   1.846  -0.023  0.00  0.00    +0.144 A 
ATOM      2  C   LIG    1        2.430   1.108  -0.016  0.00  0.00    +0.033 A 
ATOM      3  C   LIG    1        1.194   1.795   0.000  0.00  0.00    +0.019 A 
ATOM      4  C   LIG    1       -0.013   1.076   0.008  0.00  0.00    +0.015 A 
ATOM      5  C   LIG    1       -1.201   1.741   0.017  0.00  0.00    +0.046 A 
ATOM      6  C   LIG    1       -1.229   3.136   0.031  0.00  0.00    +0.120 A 
ATOM      7  C   LIG    1       -0.050   3.863   0.023  0.00  0.00    +0.092 A 
ATOM      8  C   LIG    1        1.171   3.204   0.008  0.00  0.00    +0.143 A 
ATOM      9  O   LIG    1        2.318   3.916   0.001  0.00  0.00    -0.421 OA
ATOM     10  C   LIG    1        3.518   3.311  -0.015  0.00  0.00    +0.351 A 
ATOM     11  O   LIG    1        4.535   3.979  -0.021  0.00  0.00    -0.244 OA
ENDROOT
BRANCH   1  12
ATOM     12  C   LIG    1        4.912   1.174  -0.040  0.00  0.00    +0.346 C 
ATOM     13  O   LIG    1        5.934   1.832  -0.046  0.00  0.00    -0.245 OA
BRANCH  12  14
ATOM     14  O   LIG    1        4.977  -0.173  -0.047  0.00  0.00    -0.461 OA
BRANCH  14  16
ATOM     15  C   LIG    1        6.174  -2.293  -0.070  0.00  0.00    +0.048 C 
ATOM     16  C   LIG    1        6.301  -0.768  -0.063  0.00  0.00    +0.229 C 
ENDBRANCH  14  16
ENDBRANCH  12  14
ENDBRANCH   1  12
BRANCH   6  17
ATOM     17  O   LIG    1       -2.420   3.785   0.045  0.00  0.00    -0.507 OA
ATOM     18  H   LIG    1       -2.774   3.978  -0.834  0.00  0.00    +0.292 HD
ENDBRANCH   6  17
TORSDOF 4
