REMARK  Name = ZINC00001131
REMARK                            x       y       z     vdW  Elec       q    Type
REMARK                         _______ _______ _______ _____ _____    ______ ____
ROOT
ATOM      1  C   LIG    1       -0.017   1.389   0.010  0.00  0.00    +0.020 A 
ATOM      2  C   LIG    1        1.158   2.086   0.002  0.00  0.00    +0.013 A 
ATOM      3  C   LIG    1        2.362   1.359  -0.013  0.00  0.00    +0.022 A 
ATOM      4  C   LIG    1        3.608   2.010  -0.021  0.00  0.00    +0.052 A 
ATOM      5 CL   LIG    1        3.683   3.744  -0.013  0.00  0.00    -0.083 Cl
ATOM      6  C   LIG    1        4.756   1.277  -0.035  0.00  0.00    +0.044 A 
ATOM      7  C   LIG    1        4.716  -0.116  -0.043  0.00  0.00    +0.086 A 
ATOM      8 CL   LIG    1        6.201  -1.016  -0.063  0.00  0.00    -0.080 Cl
ATOM      9  C   LIG    1        3.515  -0.788  -0.036  0.00  0.00    +0.161 A 
ATOM     10  C   LIG    1        2.309  -0.057  -0.020  0.00  0.00    +0.115 A 
ATOM     11  N   LIG    1        1.127  -0.678  -0.012  0.00  0.00    -0.251 NA
ATOM     12  C   LIG    1        0.002  -0.004   0.002  0.00  0.00    +0.111 A 
ENDROOT
BRANCH   9  13
ATOM     13  O   LIG    1        3.491  -2.147  -0.044  0.00  0.00    -0.503 OA
ATOM     14  H   LIG    1        3.492  -2.545   0.837  0.00  0.00    +0.292 HD
ENDBRANCH   9  13
TORSDOF 1
