REMARK  Name = ZINC00036780
REMARK                            x       y       z     vdW  Elec       q    Type
REMARK                         _______ _______ _______ _____ _____    ______ ____
ROOT
ATOM      1  C   LIG    1        2.162   1.247   1.240  0.00  0.00    +0.022 C 
ATOM      2  C   LIG    1        1.399   1.712  -0.002  0.00  0.00    +0.056 C 
ATOM      3  C   LIG    1        1.330   3.237  -0.005  0.00  0.00    +0.029 C 
ATOM      4  C   LIG    1       -0.132   3.734   0.002  0.00  0.00    +0.051 C 
ATOM      5  C   LIG    1       -0.774   3.078   1.215  0.00  0.00    -0.036 A 
ATOM      6  C   LIG    1       -1.373   3.753   2.240  0.00  0.00    +0.004 A 
ATOM      7  C   LIG    1       -1.902   2.974   3.330  0.00  0.00    +0.000 A 
ATOM      8  C   LIG    1       -1.821   1.594   3.321  0.00  0.00    +0.000 A 
ATOM      9  C   LIG    1       -1.216   0.931   2.261  0.00  0.00    +0.004 A 
ATOM     10  C   LIG    1       -0.703   1.668   1.232  0.00  0.00    -0.035 A 
ATOM     11  C   LIG    1       -0.788   3.072  -1.199  0.00  0.00    -0.036 A 
ATOM     12  C   LIG    1       -1.400   3.742  -2.220  0.00  0.00    +0.004 A 
ATOM     13  C   LIG    1       -1.964   3.010  -3.257  0.00  0.00    +0.000 A 
ATOM     14  C   LIG    1       -1.884   1.630  -3.264  0.00  0.00    +0.000 A 
ATOM     15  C   LIG    1       -1.259   0.956  -2.224  0.00  0.00    +0.004 A 
ATOM     16  C   LIG    1       -0.726   1.681  -1.196  0.00  0.00    -0.035 A 
ATOM     17  C   LIG    1       -0.013   1.086   0.008  0.00  0.00    +0.064 C 
ENDROOT
BRANCH   2  18
ATOM     18  C   LIG    1        2.135   1.250  -1.234  0.00  0.00    +0.225 C 
ATOM     19  N   LIG    1        3.395   1.668  -1.462  0.00  0.00    -0.264 N 
ATOM     20  H   LIG    1        3.829   2.266  -0.834  0.00  0.00    +0.157 HD
ATOM     21  O   LIG    1        1.592   0.502  -2.019  0.00  0.00    -0.275 OA
BRANCH  19  22
ATOM     22  C   LIG    1        4.074   1.242  -2.598  0.00  0.00    +0.164 A 
ATOM     23  N   LIG    1        3.661   0.434  -3.555  0.00  0.00    -0.233 NA
ATOM     24  C   LIG    1        4.438   0.133  -4.577  0.00  0.00    +0.120 A 
ATOM     25  C   LIG    1        5.685   0.664  -4.619  0.00  0.00    +0.068 A 
ATOM     26  S   LIG    1        5.685   1.630  -3.116  0.00  0.00    -0.061 S 
ENDBRANCH  19  22
ENDBRANCH   2  18
TORSDOF 2
