MODEL 1
REMARK VINA RESULT:      -7.3      0.000      0.000
REMARK  14 active torsions:
REMARK  status: ('A' for Active; 'I' for Inactive)
REMARK    1  A    between atoms: C11_1  and  O4_2 
REMARK    2  A    between atoms: C11_1  and  C10_4 
REMARK    3  A    between atoms: C11_1  and  C12_26 
REMARK    4  A    between atoms: C10_4  and  N3_10 
REMARK    5  A    between atoms: C6_5  and  C5_12 
REMARK    6  A    between atoms: N2_7  and  C31_19 
REMARK       I    between atoms: N1_11  and  C5_12 
REMARK    7  A    between atoms: N1_11  and  C2_16 
REMARK    8  A    between atoms: C31_19  and  C32_20 
REMARK    9  A    between atoms: C12_26  and  C13_27 
REMARK   10  A    between atoms: C13_27  and  C21_28 
REMARK   11  A    between atoms: C13_27  and  C14_43 
REMARK       I    between atoms: C21_28  and  N4_30 
REMARK   12  A    between atoms: N4_30  and  C22_32 
REMARK   13  A    between atoms: C30_40  and  O3_41 
REMARK   14  A    between atoms: C14_43  and  C15_44 
ROOT
HETATM    1  C11 UNK <   0      21.255  34.359  56.611  0.00  0.00     0.147 C 
ENDROOT
BRANCH   1   2
HETATM    2  O4  UNK <   0      21.173  34.162  55.199  0.00  0.00    -0.394 OA
HETATM    3  H41 UNK <   0      21.442  33.188  54.764  0.00  0.00     0.210 HD
ENDBRANCH   1   2
BRANCH   1   4
HETATM    4  C10 UNK <   0      21.767  35.772  56.900  0.00  0.00     0.305 C 
BRANCH   4   5
HETATM    5  N3  UNK <   0      20.777  36.495  57.710  0.00  0.00     0.108 N 
HETATM    6  C6  UNK <   0      20.850  37.942  57.463  0.00  0.00     0.342 C 
HETATM    7  C7  UNK <   0      19.862  38.665  58.381  0.00  0.00     0.318 C 
HETATM    8  N2  UNK <   0      18.506  38.159  58.132  0.00  0.00     0.097 N 
HETATM    9  C8  UNK <   0      18.433  36.712  58.379  0.00  0.00     0.303 C 
HETATM   10  C9  UNK <   0      19.420  35.989  57.461  0.00  0.00     0.303 C 
BRANCH   6  11
HETATM   11  C5  UNK <   0      22.248  38.430  57.744  0.00  0.00     0.253 C 
HETATM   12  N1  UNK <   0      22.948  39.059  56.778  0.00  0.00    -0.351 N 
HETATM   13  H15 UNK <   0      22.498  39.215  55.785  0.00  0.00     0.163 HD
HETATM   14  O1  UNK <   0      22.743  38.259  58.837  0.00  0.00    -0.271 OA
BRANCH  12  15
HETATM   15  C2  UNK <   0      24.307  39.534  57.050  0.00  0.00     0.022 C 
HETATM   16  C1  UNK <   0      25.280  38.354  57.000  0.00  0.00     0.037 C 
HETATM   17  C3  UNK <   0      24.706  40.570  55.997  0.00  0.00     0.037 C 
HETATM   18  C4  UNK <   0      24.353  40.177  58.439  0.00  0.00     0.037 C 
ENDBRANCH  12  15
ENDBRANCH   6  11
BRANCH   8  19
HETATM   19  C31 UNK <   0      17.516  38.882  58.942  0.00  0.00     0.312 C 
BRANCH  19  20
HETATM   20  C32 UNK <   0      16.394  39.359  58.054  0.00  0.00    -0.013 A 
HETATM   21  C33 UNK <   0      15.204  38.652  57.987  0.00  0.00     0.012 A 
HETATM   22  C34 UNK <   0      14.198  39.130  57.160  0.00  0.00     0.020 A 
HETATM   23  C35 UNK <   0      14.419  40.282  56.428  0.00  0.00     0.116 A 
HETATM   24  N5  UNK <   0      15.566  40.926  56.515  0.00  0.00    -0.273 NA
HETATM   25  C36 UNK <   0      16.542  40.502  57.294  0.00  0.00     0.125 A 
ENDBRANCH  19  20
ENDBRANCH   8  19
ENDBRANCH   4   5
ENDBRANCH   1   4
BRANCH   1  26
HETATM   26  C12 UNK <   0      22.218  33.334  57.215  0.00  0.00     0.047 C 
BRANCH  26  27
HETATM   27  C13 UNK <   0      23.130  32.785  56.117  0.00  0.00     0.084 C 
BRANCH  27  28
HETATM   28  C21 UNK <   0      22.479  31.587  55.475  0.00  0.00     0.222 C 
HETATM   29  O2  UNK <   0      22.388  31.522  54.266  0.00  0.00    -0.273 OA
HETATM   30  N4  UNK <   0      21.998  30.589  56.240  0.00  0.00    -0.350 N 
HETATM   31  H33 UNK <   0      22.010  30.681  57.337  0.00  0.00     0.163 HD
BRANCH  30  32
HETATM   32  C22 UNK <   0      21.460  29.379  55.613  0.00  0.00     0.147 C 
HETATM   33  C23 UNK <   0      22.518  28.298  55.564  0.00  0.00    -0.027 A 
HETATM   34  C24 UNK <   0      23.592  28.131  54.705  0.00  0.00     0.010 A 
HETATM   35  C28 UNK <   0      22.294  27.379  56.571  0.00  0.00    -0.047 A 
HETATM   36  C25 UNK <   0      24.439  27.051  54.853  0.00  0.00     0.001 A 
HETATM   37  C26 UNK <   0      24.216  26.131  55.861  0.00  0.00     0.001 A 
HETATM   38  C27 UNK <   0      23.145  26.295  56.718  0.00  0.00     0.008 A 
HETATM   39  C29 UNK <   0      21.071  27.778  57.367  0.00  0.00     0.073 C 
HETATM   40  C30 UNK <   0      20.322  28.790  56.474  0.00  0.00     0.149 C 
BRANCH  40  41
HETATM   41  O3  UNK <   0      19.706  29.809  57.266  0.00  0.00    -0.393 OA
HETATM   42  H40 UNK <   0      18.946  30.468  56.819  0.00  0.00     0.210 HD
ENDBRANCH  40  41
ENDBRANCH  30  32
ENDBRANCH  27  28
BRANCH  27  43
HETATM   43  C14 UNK <   0      24.470  32.372  56.726  0.00  0.00     0.052 C 
BRANCH  43  44
HETATM   44  C15 UNK <   0      25.595  32.920  55.887  0.00  0.00    -0.057 A 
HETATM   45  C16 UNK <   0      26.123  34.166  56.168  0.00  0.00     0.007 A 
HETATM   46  C17 UNK <   0      27.158  34.667  55.400  0.00  0.00     0.001 A 
HETATM   47  C18 UNK <   0      27.659  33.925  54.347  0.00  0.00     0.000 A 
HETATM   48  C19 UNK <   0      27.127  32.682  54.062  0.00  0.00     0.001 A 
HETATM   49  C20 UNK <   0      26.094  32.178  54.832  0.00  0.00     0.007 A 
ENDBRANCH  43  44
ENDBRANCH  27  43
ENDBRANCH  26  27
ENDBRANCH   1  26
TORSDOF 14
ENDMDL
MODEL 2
REMARK VINA RESULT:      -7.3      3.986      7.976
REMARK  14 active torsions:
REMARK  status: ('A' for Active; 'I' for Inactive)
REMARK    1  A    between atoms: C11_1  and  O4_2 
REMARK    2  A    between atoms: C11_1  and  C10_4 
REMARK    3  A    between atoms: C11_1  and  C12_26 
REMARK    4  A    between atoms: C10_4  and  N3_10 
REMARK    5  A    between atoms: C6_5  and  C5_12 
REMARK    6  A    between atoms: N2_7  and  C31_19 
REMARK       I    between atoms: N1_11  and  C5_12 
REMARK    7  A    between atoms: N1_11  and  C2_16 
REMARK    8  A    between atoms: C31_19  and  C32_20 
REMARK    9  A    between atoms: C12_26  and  C13_27 
REMARK   10  A    between atoms: C13_27  and  C21_28 
REMARK   11  A    between atoms: C13_27  and  C14_43 
REMARK       I    between atoms: C21_28  and  N4_30 
REMARK   12  A    between atoms: N4_30  and  C22_32 
REMARK   13  A    between atoms: C30_40  and  O3_41 
REMARK   14  A    between atoms: C14_43  and  C15_44 
ROOT
HETATM    1  C11 UNK <   0      22.937  29.372  56.806  0.00  0.00     0.147 C 
ENDROOT
BRANCH   1   2
HETATM    2  O4  UNK <   0      23.723  29.565  57.984  0.00  0.00    -0.394 OA
HETATM    3  H41 UNK <   0      23.350  30.210  58.793  0.00  0.00     0.210 HD
ENDBRANCH   1   2
BRANCH   1   4
HETATM    4  C10 UNK <   0      22.506  27.907  56.716  0.00  0.00     0.305 C 
BRANCH   4   5
HETATM    5  N3  UNK <   0      21.042  27.833  56.617  0.00  0.00     0.108 N 
HETATM    6  C6  UNK <   0      20.402  28.452  57.787  0.00  0.00     0.342 C 
HETATM    7  C7  UNK <   0      18.885  28.284  57.684  0.00  0.00     0.318 C 
HETATM    8  N2  UNK <   0      18.409  28.904  56.440  0.00  0.00     0.097 N 
HETATM    9  C8  UNK <   0      19.049  28.285  55.270  0.00  0.00     0.303 C 
HETATM   10  C9  UNK <   0      20.566  28.453  55.372  0.00  0.00     0.303 C 
BRANCH   6  11
HETATM   11  C5  UNK <   0      20.899  27.784  59.043  0.00  0.00     0.253 C 
HETATM   12  N1  UNK <   0      21.600  28.492  59.951  0.00  0.00    -0.351 N 
HETATM   13  H15 UNK <   0      21.810  29.558  59.773  0.00  0.00     0.163 HD
HETATM   14  O1  UNK <   0      20.667  26.610  59.239  0.00  0.00    -0.271 OA
BRANCH  12  15
HETATM   15  C2  UNK <   0      22.083  27.844  61.172  0.00  0.00     0.022 C 
HETATM   16  C1  UNK <   0      20.900  27.232  61.926  0.00  0.00     0.037 C 
HETATM   17  C3  UNK <   0      23.080  26.743  60.807  0.00  0.00     0.037 C 
HETATM   18  C4  UNK <   0      22.774  28.881  62.061  0.00  0.00     0.037 C 
ENDBRANCH  12  15
ENDBRANCH   6  11
BRANCH   8  19
HETATM   19  C31 UNK <   0      16.945  28.830  56.340  0.00  0.00     0.312 C 
BRANCH  19  20
HETATM   20  C32 UNK <   0      16.352  30.174  56.680  0.00  0.00    -0.013 A 
HETATM   21  C33 UNK <   0      16.919  31.337  56.184  0.00  0.00     0.012 A 
HETATM   22  C34 UNK <   0      16.338  32.550  56.519  0.00  0.00     0.020 A 
HETATM   23  C35 UNK <   0      15.226  32.560  57.341  0.00  0.00     0.116 A 
HETATM   24  N5  UNK <   0      14.716  31.433  57.798  0.00  0.00    -0.273 NA
HETATM   25  C36 UNK <   0      15.241  30.261  57.495  0.00  0.00     0.125 A 
ENDBRANCH  19  20
ENDBRANCH   8  19
ENDBRANCH   4   5
ENDBRANCH   1   4
BRANCH   1  26
HETATM   26  C12 UNK <   0      23.768  29.735  55.573  0.00  0.00     0.047 C 
BRANCH  26  27
HETATM   27  C13 UNK <   0      24.190  31.203  55.658  0.00  0.00     0.084 C 
BRANCH  27  28
HETATM   28  C21 UNK <   0      22.963  32.079  55.679  0.00  0.00     0.222 C 
HETATM   29  O2  UNK <   0      22.082  31.907  54.862  0.00  0.00    -0.273 OA
HETATM   30  N4  UNK <   0      22.844  33.051  56.603  0.00  0.00    -0.350 N 
HETATM   31  H33 UNK <   0      23.674  33.259  57.294  0.00  0.00     0.163 HD
BRANCH  30  32
HETATM   32  C22 UNK <   0      21.607  33.833  56.688  0.00  0.00     0.147 C 
HETATM   33  C23 UNK <   0      20.735  33.314  57.810  0.00  0.00    -0.027 A 
HETATM   34  C24 UNK <   0      19.907  32.205  57.865  0.00  0.00     0.010 A 
HETATM   35  C28 UNK <   0      20.848  34.142  58.911  0.00  0.00    -0.047 A 
HETATM   36  C25 UNK <   0      19.195  31.924  59.014  0.00  0.00     0.001 A 
HETATM   37  C26 UNK <   0      19.309  32.752  60.116  0.00  0.00     0.001 A 
HETATM   38  C27 UNK <   0      20.134  33.859  60.064  0.00  0.00     0.008 A 
HETATM   39  C29 UNK <   0      21.804  35.274  58.605  0.00  0.00     0.073 C 
HETATM   40  C30 UNK <   0      21.923  35.296  57.066  0.00  0.00     0.149 C 
BRANCH  40  41
HETATM   41  O3  UNK <   0      23.249  35.649  56.663  0.00  0.00    -0.393 OA
HETATM   42  H40 UNK <   0      24.076  35.594  57.387  0.00  0.00     0.210 HD
ENDBRANCH  40  41
ENDBRANCH  30  32
ENDBRANCH  27  28
BRANCH  27  43
HETATM   43  C14 UNK <   0      25.050  31.558  54.444  0.00  0.00     0.052 C 
BRANCH  43  44
HETATM   44  C15 UNK <   0      26.348  32.165  54.908  0.00  0.00    -0.057 A 
HETATM   45  C16 UNK <   0      27.501  31.403  54.923  0.00  0.00     0.007 A 
HETATM   46  C17 UNK <   0      28.694  31.962  55.345  0.00  0.00     0.001 A 
HETATM   47  C18 UNK <   0      28.731  33.280  55.759  0.00  0.00     0.000 A 
HETATM   48  C19 UNK <   0      27.577  34.040  55.750  0.00  0.00     0.001 A 
HETATM   49  C20 UNK <   0      26.384  33.483  55.324  0.00  0.00     0.007 A 
ENDBRANCH  43  44
ENDBRANCH  27  43
ENDBRANCH  26  27
ENDBRANCH   1  26
TORSDOF 14
ENDMDL
MODEL 3
REMARK VINA RESULT:      -7.2      1.762      3.032
REMARK  14 active torsions:
REMARK  status: ('A' for Active; 'I' for Inactive)
REMARK    1  A    between atoms: C11_1  and  O4_2 
REMARK    2  A    between atoms: C11_1  and  C10_4 
REMARK    3  A    between atoms: C11_1  and  C12_26 
REMARK    4  A    between atoms: C10_4  and  N3_10 
REMARK    5  A    between atoms: C6_5  and  C5_12 
REMARK    6  A    between atoms: N2_7  and  C31_19 
REMARK       I    between atoms: N1_11  and  C5_12 
REMARK    7  A    between atoms: N1_11  and  C2_16 
REMARK    8  A    between atoms: C31_19  and  C32_20 
REMARK    9  A    between atoms: C12_26  and  C13_27 
REMARK   10  A    between atoms: C13_27  and  C21_28 
REMARK   11  A    between atoms: C13_27  and  C14_43 
REMARK       I    between atoms: C21_28  and  N4_30 
REMARK   12  A    between atoms: N4_30  and  C22_32 
REMARK   13  A    between atoms: C30_40  and  O3_41 
REMARK   14  A    between atoms: C14_43  and  C15_44 
ROOT
HETATM    1  C11 UNK <   0      21.589  33.189  56.097  0.00  0.00     0.147 C 
ENDROOT
BRANCH   1   2
HETATM    2  O4  UNK <   0      21.474  32.554  54.822  0.00  0.00    -0.394 OA
HETATM    3  H41 UNK <   0      20.735  32.917  54.092  0.00  0.00     0.210 HD
ENDBRANCH   1   2
BRANCH   1   4
HETATM    4  C10 UNK <   0      21.127  34.643  55.985  0.00  0.00     0.305 C 
BRANCH   4   5
HETATM    5  N3  UNK <   0      20.206  34.950  57.087  0.00  0.00     0.108 N 
HETATM    6  C6  UNK <   0      20.278  36.372  57.453  0.00  0.00     0.342 C 
HETATM    7  C7  UNK <   0      19.366  36.635  58.653  0.00  0.00     0.318 C 
HETATM    8  N2  UNK <   0      17.989  36.251  58.312  0.00  0.00     0.097 N 
HETATM    9  C8  UNK <   0      17.917  34.829  57.946  0.00  0.00     0.303 C 
HETATM   10  C9  UNK <   0      18.829  34.567  56.746  0.00  0.00     0.303 C 
BRANCH   6  11
HETATM   11  C5  UNK <   0      21.698  36.728  57.812  0.00  0.00     0.253 C 
HETATM   12  N1  UNK <   0      22.331  37.719  57.152  0.00  0.00    -0.351 N 
HETATM   13  H15 UNK <   0      21.811  38.266  56.351  0.00  0.00     0.163 HD
HETATM   14  O1  UNK <   0      22.270  36.125  58.694  0.00  0.00    -0.271 OA
BRANCH  12  15
HETATM   15  C2  UNK <   0      23.711  38.066  57.501  0.00  0.00     0.022 C 
HETATM   16  C1  UNK <   0      23.792  38.397  58.993  0.00  0.00     0.037 C 
HETATM   17  C3  UNK <   0      24.629  36.882  57.190  0.00  0.00     0.037 C 
HETATM   18  C4  UNK <   0      24.153  39.281  56.682  0.00  0.00     0.037 C 
ENDBRANCH  12  15
ENDBRANCH   6  11
BRANCH   8  19
HETATM   19  C31 UNK <   0      17.068  36.558  59.414  0.00  0.00     0.312 C 
BRANCH  19  20
HETATM   20  C32 UNK <   0      16.137  37.668  58.995  0.00  0.00    -0.013 A 
HETATM   21  C33 UNK <   0      15.343  38.310  59.933  0.00  0.00     0.012 A 
HETATM   22  C34 UNK <   0      14.506  39.328  59.503  0.00  0.00     0.020 A 
HETATM   23  C35 UNK <   0      14.482  39.659  58.161  0.00  0.00     0.116 A 
HETATM   24  N5  UNK <   0      15.249  39.024  57.297  0.00  0.00    -0.273 NA
HETATM   25  C36 UNK <   0      16.060  38.054  57.671  0.00  0.00     0.125 A 
ENDBRANCH  19  20
ENDBRANCH   8  19
ENDBRANCH   4   5
ENDBRANCH   1   4
BRANCH   1  26
HETATM   26  C12 UNK <   0      23.048  33.151  56.556  0.00  0.00     0.047 C 
BRANCH  26  27
HETATM   27  C13 UNK <   0      23.616  31.748  56.332  0.00  0.00     0.084 C 
BRANCH  27  28
HETATM   28  C21 UNK <   0      22.766  30.739  57.061  0.00  0.00     0.222 C 
HETATM   29  O2  UNK <   0      22.857  30.629  58.267  0.00  0.00    -0.273 OA
HETATM   30  N4  UNK <   0      21.906  29.960  56.377  0.00  0.00    -0.350 N 
HETATM   31  H33 UNK <   0      21.878  30.005  55.278  0.00  0.00     0.163 HD
BRANCH  30  32
HETATM   32  C22 UNK <   0      21.007  29.055  57.097  0.00  0.00     0.147 C 
HETATM   33  C23 UNK <   0      19.588  29.578  57.051  0.00  0.00    -0.027 A 
HETATM   34  C24 UNK <   0      18.978  30.585  57.781  0.00  0.00     0.010 A 
HETATM   35  C28 UNK <   0      18.863  28.881  56.103  0.00  0.00    -0.047 A 
HETATM   36  C25 UNK <   0      17.650  30.894  57.565  0.00  0.00     0.001 A 
HETATM   37  C26 UNK <   0      16.925  30.197  56.616  0.00  0.00     0.001 A 
HETATM   38  C27 UNK <   0      17.530  29.192  55.887  0.00  0.00     0.008 A 
HETATM   39  C29 UNK <   0      19.744  27.842  55.446  0.00  0.00     0.073 C 
HETATM   40  C30 UNK <   0      20.954  27.682  56.392  0.00  0.00     0.149 C 
BRANCH  40  41
HETATM   41  O3  UNK <   0      22.153  27.445  55.651  0.00  0.00    -0.393 OA
HETATM   42  H40 UNK <   0      22.097  27.202  54.579  0.00  0.00     0.210 HD
ENDBRANCH  40  41
ENDBRANCH  30  32
ENDBRANCH  27  28
BRANCH  27  43
HETATM   43  C14 UNK <   0      25.049  31.687  56.862  0.00  0.00     0.052 C 
BRANCH  43  44
HETATM   44  C15 UNK <   0      25.954  32.484  55.959  0.00  0.00    -0.057 A 
HETATM   45  C16 UNK <   0      26.333  31.971  54.732  0.00  0.00     0.007 A 
HETATM   46  C17 UNK <   0      27.160  32.705  53.901  0.00  0.00     0.001 A 
HETATM   47  C18 UNK <   0      27.613  33.948  54.301  0.00  0.00     0.000 A 
HETATM   48  C19 UNK <   0      27.239  34.458  55.529  0.00  0.00     0.001 A 
HETATM   49  C20 UNK <   0      26.409  33.727  56.359  0.00  0.00     0.007 A 
ENDBRANCH  43  44
ENDBRANCH  27  43
ENDBRANCH  26  27
ENDBRANCH   1  26
TORSDOF 14
ENDMDL
MODEL 4
REMARK VINA RESULT:      -7.1      3.601      7.140
REMARK  14 active torsions:
REMARK  status: ('A' for Active; 'I' for Inactive)
REMARK    1  A    between atoms: C11_1  and  O4_2 
REMARK    2  A    between atoms: C11_1  and  C10_4 
REMARK    3  A    between atoms: C11_1  and  C12_26 
REMARK    4  A    between atoms: C10_4  and  N3_10 
REMARK    5  A    between atoms: C6_5  and  C5_12 
REMARK    6  A    between atoms: N2_7  and  C31_19 
REMARK       I    between atoms: N1_11  and  C5_12 
REMARK    7  A    between atoms: N1_11  and  C2_16 
REMARK    8  A    between atoms: C31_19  and  C32_20 
REMARK    9  A    between atoms: C12_26  and  C13_27 
REMARK   10  A    between atoms: C13_27  and  C21_28 
REMARK   11  A    between atoms: C13_27  and  C14_43 
REMARK       I    between atoms: C21_28  and  N4_30 
REMARK   12  A    between atoms: N4_30  and  C22_32 
REMARK   13  A    between atoms: C30_40  and  O3_41 
REMARK   14  A    between atoms: C14_43  and  C15_44 
ROOT
HETATM    1  C11 UNK <   0      23.217  29.128  55.896  0.00  0.00     0.147 C 
ENDROOT
BRANCH   1   2
HETATM    2  O4  UNK <   0      23.926  28.746  54.716  0.00  0.00    -0.394 OA
HETATM    3  H41 UNK <   0      24.168  29.500  53.952  0.00  0.00     0.210 HD
ENDBRANCH   1   2
BRANCH   1   4
HETATM    4  C10 UNK <   0      24.177  29.824  56.863  0.00  0.00     0.305 C 
BRANCH   4   5
HETATM    5  N3  UNK <   0      23.596  31.104  57.292  0.00  0.00     0.108 N 
HETATM    6  C6  UNK <   0      23.463  32.029  56.158  0.00  0.00     0.342 C 
HETATM    7  C7  UNK <   0      22.932  33.374  56.658  0.00  0.00     0.318 C 
HETATM    8  N2  UNK <   0      21.636  33.169  57.321  0.00  0.00     0.097 N 
HETATM    9  C8  UNK <   0      21.769  32.244  58.455  0.00  0.00     0.303 C 
HETATM   10  C9  UNK <   0      22.301  30.899  57.955  0.00  0.00     0.303 C 
BRANCH   6  11
HETATM   11  C5  UNK <   0      24.811  32.230  55.512  0.00  0.00     0.253 C 
HETATM   12  N1  UNK <   0      25.629  33.208  55.952  0.00  0.00    -0.351 N 
HETATM   13  H15 UNK <   0      25.312  33.859  56.781  0.00  0.00     0.163 HD
HETATM   14  O1  UNK <   0      25.160  31.512  54.600  0.00  0.00    -0.271 OA
BRANCH  12  15
HETATM   15  C2  UNK <   0      26.938  33.403  55.326  0.00  0.00     0.022 C 
HETATM   16  C1  UNK <   0      27.166  34.896  55.076  0.00  0.00     0.037 C 
HETATM   17  C3  UNK <   0      28.032  32.867  56.251  0.00  0.00     0.037 C 
HETATM   18  C4  UNK <   0      26.984  32.649  53.994  0.00  0.00     0.037 C 
ENDBRANCH  12  15
ENDBRANCH   6  11
BRANCH   8  19
HETATM   19  C31 UNK <   0      21.055  34.448  57.750  0.00  0.00     0.312 C 
BRANCH  19  20
HETATM   20  C32 UNK <   0      19.674  34.593  57.163  0.00  0.00    -0.013 A 
HETATM   21  C33 UNK <   0      18.889  35.691  57.481  0.00  0.00     0.012 A 
HETATM   22  C34 UNK <   0      17.626  35.785  56.916  0.00  0.00     0.020 A 
HETATM   23  C35 UNK <   0      17.191  34.782  56.069  0.00  0.00     0.116 A 
HETATM   24  N5  UNK <   0      17.964  33.751  55.793  0.00  0.00    -0.273 NA
HETATM   25  C36 UNK <   0      19.172  33.631  56.309  0.00  0.00     0.125 A 
ENDBRANCH  19  20
ENDBRANCH   8  19
ENDBRANCH   4   5
ENDBRANCH   1   4
BRANCH   1  26
HETATM   26  C12 UNK <   0      22.632  27.883  56.566  0.00  0.00     0.047 C 
BRANCH  26  27
HETATM   27  C13 UNK <   0      21.116  28.037  56.692  0.00  0.00     0.084 C 
BRANCH  27  28
HETATM   28  C21 UNK <   0      20.544  26.830  57.390  0.00  0.00     0.222 C 
HETATM   29  O2  UNK <   0      20.245  26.894  58.564  0.00  0.00    -0.273 OA
HETATM   30  N4  UNK <   0      20.365  25.680  56.711  0.00  0.00    -0.350 N 
HETATM   31  H33 UNK <   0      20.707  25.597  55.669  0.00  0.00     0.163 HD
BRANCH  30  32
HETATM   32  C22 UNK <   0      19.714  24.540  57.361  0.00  0.00     0.147 C 
HETATM   33  C23 UNK <   0      18.222  24.575  57.110  0.00  0.00    -0.027 A 
HETATM   34  C24 UNK <   0      17.229  25.338  57.703  0.00  0.00     0.010 A 
HETATM   35  C28 UNK <   0      17.893  23.670  56.118  0.00  0.00    -0.047 A 
HETATM   36  C25 UNK <   0      15.914  25.198  57.307  0.00  0.00     0.001 A 
HETATM   37  C26 UNK <   0      15.586  24.293  56.314  0.00  0.00     0.001 A 
HETATM   38  C27 UNK <   0      16.573  23.531  55.721  0.00  0.00     0.008 A 
HETATM   39  C29 UNK <   0      19.141  22.965  55.634  0.00  0.00     0.073 C 
HETATM   40  C30 UNK <   0      20.198  23.216  56.731  0.00  0.00     0.149 C 
BRANCH  40  41
HETATM   41  O3  UNK <   0      21.499  23.372  56.159  0.00  0.00    -0.393 OA
HETATM   42  H40 UNK <   0      22.066  22.487  55.834  0.00  0.00     0.210 HD
ENDBRANCH  40  41
ENDBRANCH  30  32
ENDBRANCH  27  28
BRANCH  27  43
HETATM   43  C14 UNK <   0      20.498  28.162  55.299  0.00  0.00     0.052 C 
BRANCH  43  44
HETATM   44  C15 UNK <   0      19.038  28.512  55.426  0.00  0.00    -0.057 A 
HETATM   45  C16 UNK <   0      18.078  27.675  54.889  0.00  0.00     0.007 A 
HETATM   46  C17 UNK <   0      16.737  27.993  55.010  0.00  0.00     0.001 A 
HETATM   47  C18 UNK <   0      16.359  29.152  55.661  0.00  0.00     0.000 A 
HETATM   48  C19 UNK <   0      17.319  29.992  56.192  0.00  0.00     0.001 A 
HETATM   49  C20 UNK <   0      18.659  29.672  56.076  0.00  0.00     0.007 A 
ENDBRANCH  43  44
ENDBRANCH  27  43
ENDBRANCH  26  27
ENDBRANCH   1  26
TORSDOF 14
ENDMDL
MODEL 5
REMARK VINA RESULT:      -7.0      3.729      5.055
REMARK  14 active torsions:
REMARK  status: ('A' for Active; 'I' for Inactive)
REMARK    1  A    between atoms: C11_1  and  O4_2 
REMARK    2  A    between atoms: C11_1  and  C10_4 
REMARK    3  A    between atoms: C11_1  and  C12_26 
REMARK    4  A    between atoms: C10_4  and  N3_10 
REMARK    5  A    between atoms: C6_5  and  C5_12 
REMARK    6  A    between atoms: N2_7  and  C31_19 
REMARK       I    between atoms: N1_11  and  C5_12 
REMARK    7  A    between atoms: N1_11  and  C2_16 
REMARK    8  A    between atoms: C31_19  and  C32_20 
REMARK    9  A    between atoms: C12_26  and  C13_27 
REMARK   10  A    between atoms: C13_27  and  C21_28 
REMARK   11  A    between atoms: C13_27  and  C14_43 
REMARK       I    between atoms: C21_28  and  N4_30 
REMARK   12  A    between atoms: N4_30  and  C22_32 
REMARK   13  A    between atoms: C30_40  and  O3_41 
REMARK   14  A    between atoms: C14_43  and  C15_44 
ROOT
HETATM    1  C11 UNK <   0      22.342  33.661  56.658  0.00  0.00     0.147 C 
ENDROOT
BRANCH   1   2
HETATM    2  O4  UNK <   0      23.408  34.611  56.699  0.00  0.00    -0.394 OA
HETATM    3  H41 UNK <   0      23.341  35.537  56.108  0.00  0.00     0.210 HD
ENDBRANCH   1   2
BRANCH   1   4
HETATM    4  C10 UNK <   0      21.224  34.110  57.602  0.00  0.00     0.305 C 
BRANCH   4   5
HETATM    5  N3  UNK <   0      20.009  33.331  57.327  0.00  0.00     0.108 N 
HETATM    6  C6  UNK <   0      19.209  33.154  58.548  0.00  0.00     0.342 C 
HETATM    7  C7  UNK <   0      17.997  32.273  58.238  0.00  0.00     0.318 C 
HETATM    8  N2  UNK <   0      17.199  32.898  57.175  0.00  0.00     0.097 N 
HETATM    9  C8  UNK <   0      17.999  33.075  55.954  0.00  0.00     0.303 C 
HETATM   10  C9  UNK <   0      19.211  33.956  56.264  0.00  0.00     0.303 C 
BRANCH   6  11
HETATM   11  C5  UNK <   0      20.051  32.496  59.610  0.00  0.00     0.253 C 
HETATM   12  N1  UNK <   0      20.547  31.259  59.406  0.00  0.00    -0.351 N 
HETATM   13  H15 UNK <   0      20.336  30.730  58.463  0.00  0.00     0.163 HD
HETATM   14  O1  UNK <   0      20.284  33.078  60.648  0.00  0.00    -0.271 OA
BRANCH  12  15
HETATM   15  C2  UNK <   0      21.366  30.618  60.437  0.00  0.00     0.022 C 
HETATM   16  C1  UNK <   0      20.510  30.357  61.679  0.00  0.00     0.037 C 
HETATM   17  C3  UNK <   0      21.913  29.292  59.906  0.00  0.00     0.037 C 
HETATM   18  C4  UNK <   0      22.533  31.538  60.805  0.00  0.00     0.037 C 
ENDBRANCH  12  15
ENDBRANCH   6  11
BRANCH   8  19
HETATM   19  C31 UNK <   0      15.984  32.120  56.900  0.00  0.00     0.312 C 
BRANCH  19  20
HETATM   20  C32 UNK <   0      14.784  32.855  57.440  0.00  0.00    -0.013 A 
HETATM   21  C33 UNK <   0      13.693  32.153  57.929  0.00  0.00     0.012 A 
HETATM   22  C34 UNK <   0      12.613  32.871  58.420  0.00  0.00     0.020 A 
HETATM   23  C35 UNK <   0      12.656  34.253  58.396  0.00  0.00     0.116 A 
HETATM   24  N5  UNK <   0      13.709  34.886  57.920  0.00  0.00    -0.273 NA
HETATM   25  C36 UNK <   0      14.755  34.236  57.449  0.00  0.00     0.125 A 
ENDBRANCH  19  20
ENDBRANCH   8  19
ENDBRANCH   4   5
ENDBRANCH   1   4
BRANCH   1  26
HETATM   26  C12 UNK <   0      22.861  32.291  57.098  0.00  0.00     0.047 C 
BRANCH  26  27
HETATM   27  C13 UNK <   0      23.742  31.702  55.994  0.00  0.00     0.084 C 
BRANCH  27  28
HETATM   28  C21 UNK <   0      23.059  30.500  55.394  0.00  0.00     0.222 C 
HETATM   29  O2  UNK <   0      23.173  30.267  54.208  0.00  0.00    -0.273 OA
HETATM   30  N4  UNK <   0      22.323  29.683  56.173  0.00  0.00    -0.350 N 
HETATM   31  H33 UNK <   0      22.155  29.935  57.231  0.00  0.00     0.163 HD
BRANCH  30  32
HETATM   32  C22 UNK <   0      21.746  28.459  55.611  0.00  0.00     0.147 C 
HETATM   33  C23 UNK <   0      21.687  27.375  56.665  0.00  0.00    -0.027 A 
HETATM   34  C24 UNK <   0      22.682  26.547  57.159  0.00  0.00     0.010 A 
HETATM   35  C28 UNK <   0      20.399  27.267  57.154  0.00  0.00    -0.047 A 
HETATM   36  C25 UNK <   0      22.391  25.616  58.136  0.00  0.00     0.001 A 
HETATM   37  C26 UNK <   0      21.102  25.509  58.625  0.00  0.00     0.001 A 
HETATM   38  C27 UNK <   0      20.108  26.333  58.134  0.00  0.00     0.008 A 
HETATM   39  C29 UNK <   0      19.503  28.271  56.461  0.00  0.00     0.073 C 
HETATM   40  C30 UNK <   0      20.279  28.699  55.197  0.00  0.00     0.149 C 
BRANCH  40  41
HETATM   41  O3  UNK <   0      20.054  30.081  54.905  0.00  0.00    -0.393 OA
HETATM   42  H40 UNK <   0      19.571  30.729  55.653  0.00  0.00     0.210 HD
ENDBRANCH  40  41
ENDBRANCH  30  32
ENDBRANCH  27  28
BRANCH  27  43
HETATM   43  C14 UNK <   0      25.089  31.283  56.585  0.00  0.00     0.052 C 
BRANCH  43  44
HETATM   44  C15 UNK <   0      26.187  32.107  55.966  0.00  0.00    -0.057 A 
HETATM   45  C16 UNK <   0      27.161  32.674  56.766  0.00  0.00     0.007 A 
HETATM   46  C17 UNK <   0      28.172  33.427  56.198  0.00  0.00     0.001 A 
HETATM   47  C18 UNK <   0      28.205  33.618  54.830  0.00  0.00     0.000 A 
HETATM   48  C19 UNK <   0      27.228  33.057  54.030  0.00  0.00     0.001 A 
HETATM   49  C20 UNK <   0      26.219  32.300  54.597  0.00  0.00     0.007 A 
ENDBRANCH  43  44
ENDBRANCH  27  43
ENDBRANCH  26  27
ENDBRANCH   1  26
TORSDOF 14
ENDMDL
MODEL 6
REMARK VINA RESULT:      -7.0      2.134      4.751
REMARK  14 active torsions:
REMARK  status: ('A' for Active; 'I' for Inactive)
REMARK    1  A    between atoms: C11_1  and  O4_2 
REMARK    2  A    between atoms: C11_1  and  C10_4 
REMARK    3  A    between atoms: C11_1  and  C12_26 
REMARK    4  A    between atoms: C10_4  and  N3_10 
REMARK    5  A    between atoms: C6_5  and  C5_12 
REMARK    6  A    between atoms: N2_7  and  C31_19 
REMARK       I    between atoms: N1_11  and  C5_12 
REMARK    7  A    between atoms: N1_11  and  C2_16 
REMARK    8  A    between atoms: C31_19  and  C32_20 
REMARK    9  A    between atoms: C12_26  and  C13_27 
REMARK   10  A    between atoms: C13_27  and  C21_28 
REMARK   11  A    between atoms: C13_27  and  C14_43 
REMARK       I    between atoms: C21_28  and  N4_30 
REMARK   12  A    between atoms: N4_30  and  C22_32 
REMARK   13  A    between atoms: C30_40  and  O3_41 
REMARK   14  A    between atoms: C14_43  and  C15_44 
ROOT
HETATM    1  C11 UNK <   0      20.583  34.853  57.668  0.00  0.00     0.147 C 
ENDROOT
BRANCH   1   2
HETATM    2  O4  UNK <   0      21.634  34.968  56.707  0.00  0.00    -0.394 OA
HETATM    3  H41 UNK <   0      21.404  34.916  55.632  0.00  0.00     0.210 HD
ENDBRANCH   1   2
BRANCH   1   4
HETATM    4  C10 UNK <   0      21.031  35.478  58.990  0.00  0.00     0.305 C 
BRANCH   4   5
HETATM    5  N3  UNK <   0      20.108  36.560  59.357  0.00  0.00     0.108 N 
HETATM    6  C6  UNK <   0      20.188  37.669  58.396  0.00  0.00     0.342 C 
HETATM    7  C7  UNK <   0      19.274  38.807  58.855  0.00  0.00     0.318 C 
HETATM    8  N2  UNK <   0      17.896  38.310  58.968  0.00  0.00     0.097 N 
HETATM    9  C8  UNK <   0      17.816  37.201  59.929  0.00  0.00     0.303 C 
HETATM   10  C9  UNK <   0      18.730  36.063  59.469  0.00  0.00     0.303 C 
BRANCH   6  11
HETATM   11  C5  UNK <   0      21.609  38.166  58.317  0.00  0.00     0.253 C 
HETATM   12  N1  UNK <   0      22.362  37.885  57.234  0.00  0.00    -0.351 N 
HETATM   13  H15 UNK <   0      21.938  37.293  56.409  0.00  0.00     0.163 HD
HETATM   14  O1  UNK <   0      22.075  38.818  59.227  0.00  0.00    -0.271 OA
BRANCH  12  15
HETATM   15  C2  UNK <   0      23.742  38.367  57.157  0.00  0.00     0.022 C 
HETATM   16  C1  UNK <   0      23.745  39.895  57.081  0.00  0.00     0.037 C 
HETATM   17  C3  UNK <   0      24.511  37.916  58.401  0.00  0.00     0.037 C 
HETATM   18  C4  UNK <   0      24.414  37.791  55.908  0.00  0.00     0.037 C 
ENDBRANCH  12  15
ENDBRANCH   6  11
BRANCH   8  19
HETATM   19  C31 UNK <   0      16.973  39.393  59.335  0.00  0.00     0.312 C 
BRANCH  19  20
HETATM   20  C32 UNK <   0      15.950  39.572  58.241  0.00  0.00    -0.013 A 
HETATM   21  C33 UNK <   0      16.175  40.471  57.211  0.00  0.00     0.012 A 
HETATM   22  C34 UNK <   0      15.209  40.600  56.225  0.00  0.00     0.020 A 
HETATM   23  C35 UNK <   0      14.056  39.841  56.308  0.00  0.00     0.116 A 
HETATM   24  N5  UNK <   0      13.875  38.998  57.305  0.00  0.00    -0.273 NA
HETATM   25  C36 UNK <   0      14.775  38.847  58.258  0.00  0.00     0.125 A 
ENDBRANCH  19  20
ENDBRANCH   8  19
ENDBRANCH   4   5
ENDBRANCH   1   4
BRANCH   1  26
HETATM   26  C12 UNK <   0      20.253  33.375  57.888  0.00  0.00     0.047 C 
BRANCH  26  27
HETATM   27  C13 UNK <   0      19.320  32.890  56.777  0.00  0.00     0.084 C 
BRANCH  27  28
HETATM   28  C21 UNK <   0      20.138  32.332  55.641  0.00  0.00     0.222 C 
HETATM   29  O2  UNK <   0      20.375  33.020  54.670  0.00  0.00    -0.273 OA
HETATM   30  N4  UNK <   0      20.608  31.071  55.704  0.00  0.00    -0.350 N 
HETATM   31  H33 UNK <   0      20.330  30.421  56.547  0.00  0.00     0.163 HD
BRANCH  30  32
HETATM   32  C22 UNK <   0      21.489  30.564  54.648  0.00  0.00     0.147 C 
HETATM   33  C23 UNK <   0      22.937  30.678  55.074  0.00  0.00    -0.027 A 
HETATM   34  C24 UNK <   0      23.782  31.775  55.100  0.00  0.00     0.010 A 
HETATM   35  C28 UNK <   0      23.401  29.443  55.486  0.00  0.00    -0.047 A 
HETATM   36  C25 UNK <   0      25.085  31.639  55.535  0.00  0.00     0.001 A 
HETATM   37  C26 UNK <   0      25.550  30.403  55.948  0.00  0.00     0.001 A 
HETATM   38  C27 UNK <   0      24.709  29.307  55.922  0.00  0.00     0.008 A 
HETATM   39  C29 UNK <   0      22.298  28.414  55.364  0.00  0.00     0.073 C 
HETATM   40  C30 UNK <   0      21.250  29.055  54.429  0.00  0.00     0.149 C 
BRANCH  40  41
HETATM   41  O3  UNK <   0      19.925  28.689  54.823  0.00  0.00    -0.393 OA
HETATM   42  H40 UNK <   0      19.127  28.621  54.068  0.00  0.00     0.210 HD
ENDBRANCH  40  41
ENDBRANCH  30  32
ENDBRANCH  27  28
BRANCH  27  43
HETATM   43  C14 UNK <   0      18.476  34.061  56.271  0.00  0.00     0.052 C 
BRANCH  43  44
HETATM   44  C15 UNK <   0      17.055  33.897  56.742  0.00  0.00    -0.057 A 
HETATM   45  C16 UNK <   0      16.336  34.998  57.168  0.00  0.00     0.007 A 
HETATM   46  C17 UNK <   0      15.030  34.849  57.596  0.00  0.00     0.001 A 
HETATM   47  C18 UNK <   0      14.446  33.596  57.605  0.00  0.00     0.000 A 
HETATM   48  C19 UNK <   0      15.166  32.494  57.185  0.00  0.00     0.001 A 
HETATM   49  C20 UNK <   0      16.471  32.643  56.753  0.00  0.00     0.007 A 
ENDBRANCH  43  44
ENDBRANCH  27  43
ENDBRANCH  26  27
ENDBRANCH   1  26
TORSDOF 14
ENDMDL
MODEL 7
REMARK VINA RESULT:      -7.0      1.619      2.267
REMARK  14 active torsions:
REMARK  status: ('A' for Active; 'I' for Inactive)
REMARK    1  A    between atoms: C11_1  and  O4_2 
REMARK    2  A    between atoms: C11_1  and  C10_4 
REMARK    3  A    between atoms: C11_1  and  C12_26 
REMARK    4  A    between atoms: C10_4  and  N3_10 
REMARK    5  A    between atoms: C6_5  and  C5_12 
REMARK    6  A    between atoms: N2_7  and  C31_19 
REMARK       I    between atoms: N1_11  and  C5_12 
REMARK    7  A    between atoms: N1_11  and  C2_16 
REMARK    8  A    between atoms: C31_19  and  C32_20 
REMARK    9  A    between atoms: C12_26  and  C13_27 
REMARK   10  A    between atoms: C13_27  and  C21_28 
REMARK   11  A    between atoms: C13_27  and  C14_43 
REMARK       I    between atoms: C21_28  and  N4_30 
REMARK   12  A    between atoms: N4_30  and  C22_32 
REMARK   13  A    between atoms: C30_40  and  O3_41 
REMARK   14  A    between atoms: C14_43  and  C15_44 
ROOT
HETATM    1  C11 UNK <   0      21.996  33.093  56.755  0.00  0.00     0.147 C 
ENDROOT
BRANCH   1   2
HETATM    2  O4  UNK <   0      22.100  32.847  55.351  0.00  0.00    -0.394 OA
HETATM    3  H41 UNK <   0      22.625  31.951  54.988  0.00  0.00     0.210 HD
ENDBRANCH   1   2
BRANCH   1   4
HETATM    4  C10 UNK <   0      22.357  34.552  57.044  0.00  0.00     0.305 C 
BRANCH   4   5
HETATM    5  N3  UNK <   0      21.436  35.093  58.052  0.00  0.00     0.108 N 
HETATM    6  C6  UNK <   0      21.343  36.556  57.949  0.00  0.00     0.342 C 
HETATM    7  C7  UNK <   0      20.440  37.088  59.064  0.00  0.00     0.318 C 
HETATM    8  N2  UNK <   0      19.112  36.469  58.951  0.00  0.00     0.097 N 
HETATM    9  C8  UNK <   0      19.205  35.006  59.055  0.00  0.00     0.303 C 
HETATM   10  C9  UNK <   0      20.108  34.474  57.940  0.00  0.00     0.303 C 
BRANCH   6  11
HETATM   11  C5  UNK <   0      22.718  37.159  58.085  0.00  0.00     0.253 C 
HETATM   12  N1  UNK <   0      23.174  38.013  57.147  0.00  0.00    -0.351 N 
HETATM   13  H15 UNK <   0      22.542  38.270  56.282  0.00  0.00     0.163 HD
HETATM   14  O1  UNK <   0      23.413  36.877  59.037  0.00  0.00    -0.271 OA
BRANCH  12  15
HETATM   15  C2  UNK <   0      24.510  38.600  57.278  0.00  0.00     0.022 C 
HETATM   16  C1  UNK <   0      25.567  37.512  57.076  0.00  0.00     0.037 C 
HETATM   17  C3  UNK <   0      24.694  39.693  56.224  0.00  0.00     0.037 C 
HETATM   18  C4  UNK <   0      24.663  39.209  58.674  0.00  0.00     0.037 C 
ENDBRANCH  12  15
ENDBRANCH   6  11
BRANCH   8  19
HETATM   19  C31 UNK <   0      18.190  37.011  59.959  0.00  0.00     0.312 C 
BRANCH  19  20
HETATM   20  C32 UNK <   0      16.955  37.540  59.277  0.00  0.00    -0.013 A 
HETATM   21  C33 UNK <   0      15.751  37.610  59.961  0.00  0.00     0.012 A 
HETATM   22  C34 UNK <   0      14.641  38.107  59.295  0.00  0.00     0.020 A 
HETATM   23  C35 UNK <   0      14.769  38.503  57.976  0.00  0.00     0.116 A 
HETATM   24  N5  UNK <   0      15.929  38.418  57.356  0.00  0.00    -0.273 NA
HETATM   25  C36 UNK <   0      17.006  37.954  57.961  0.00  0.00     0.125 A 
ENDBRANCH  19  20
ENDBRANCH   8  19
ENDBRANCH   4   5
ENDBRANCH   1   4
BRANCH   1  26
HETATM   26  C12 UNK <   0      22.958  32.171  57.506  0.00  0.00     0.047 C 
BRANCH  26  27
HETATM   27  C13 UNK <   0      23.903  31.499  56.509  0.00  0.00     0.084 C 
BRANCH  27  28
HETATM   28  C21 UNK <   0      23.548  30.039  56.386  0.00  0.00     0.222 C 
HETATM   29  O2  UNK <   0      24.427  29.205  56.314  0.00  0.00    -0.273 OA
HETATM   30  N4  UNK <   0      22.256  29.658  56.357  0.00  0.00    -0.350 N 
HETATM   31  H33 UNK <   0      21.459  30.417  56.345  0.00  0.00     0.163 HD
BRANCH  30  32
HETATM   32  C22 UNK <   0      21.912  28.234  56.343  0.00  0.00     0.147 C 
HETATM   33  C23 UNK <   0      21.602  27.755  57.744  0.00  0.00    -0.027 A 
HETATM   34  C24 UNK <   0      22.449  27.426  58.789  0.00  0.00     0.010 A 
HETATM   35  C28 UNK <   0      20.233  27.662  57.915  0.00  0.00    -0.047 A 
HETATM   36  C25 UNK <   0      21.933  27.006  59.998  0.00  0.00     0.001 A 
HETATM   37  C26 UNK <   0      20.563  26.914  60.169  0.00  0.00     0.001 A 
HETATM   38  C27 UNK <   0      19.716  27.241  59.129  0.00  0.00     0.008 A 
HETATM   39  C29 UNK <   0      19.530  28.072  56.640  0.00  0.00     0.073 C 
HETATM   40  C30 UNK <   0      20.612  28.006  55.541  0.00  0.00     0.149 C 
BRANCH  40  41
HETATM   41  O3  UNK <   0      20.423  29.042  54.576  0.00  0.00    -0.393 OA
HETATM   42  H40 UNK <   0      19.798  29.915  54.821  0.00  0.00     0.210 HD
ENDBRANCH  40  41
ENDBRANCH  30  32
ENDBRANCH  27  28
BRANCH  27  43
HETATM   43  C14 UNK <   0      25.345  31.633  57.001  0.00  0.00     0.052 C 
BRANCH  43  44
HETATM   44  C15 UNK <   0      26.128  32.482  56.035  0.00  0.00    -0.057 A 
HETATM   45  C16 UNK <   0      26.351  33.818  56.311  0.00  0.00     0.007 A 
HETATM   46  C17 UNK <   0      27.074  34.597  55.426  0.00  0.00     0.001 A 
HETATM   47  C18 UNK <   0      27.567  34.040  54.261  0.00  0.00     0.000 A 
HETATM   48  C19 UNK <   0      27.339  32.707  53.981  0.00  0.00     0.001 A 
HETATM   49  C20 UNK <   0      26.620  31.926  54.868  0.00  0.00     0.007 A 
ENDBRANCH  43  44
ENDBRANCH  27  43
ENDBRANCH  26  27
ENDBRANCH   1  26
TORSDOF 14
ENDMDL
MODEL 8
REMARK VINA RESULT:      -6.9      4.172      8.222
REMARK  14 active torsions:
REMARK  status: ('A' for Active; 'I' for Inactive)
REMARK    1  A    between atoms: C11_1  and  O4_2 
REMARK    2  A    between atoms: C11_1  and  C10_4 
REMARK    3  A    between atoms: C11_1  and  C12_26 
REMARK    4  A    between atoms: C10_4  and  N3_10 
REMARK    5  A    between atoms: C6_5  and  C5_12 
REMARK    6  A    between atoms: N2_7  and  C31_19 
REMARK       I    between atoms: N1_11  and  C5_12 
REMARK    7  A    between atoms: N1_11  and  C2_16 
REMARK    8  A    between atoms: C31_19  and  C32_20 
REMARK    9  A    between atoms: C12_26  and  C13_27 
REMARK   10  A    between atoms: C13_27  and  C21_28 
REMARK   11  A    between atoms: C13_27  and  C14_43 
REMARK       I    between atoms: C21_28  and  N4_30 
REMARK   12  A    between atoms: N4_30  and  C22_32 
REMARK   13  A    between atoms: C30_40  and  O3_41 
REMARK   14  A    between atoms: C14_43  and  C15_44 
ROOT
HETATM    1  C11 UNK <   0      22.820  28.453  55.422  0.00  0.00     0.147 C 
ENDROOT
BRANCH   1   2
HETATM    2  O4  UNK <   0      23.672  27.728  54.533  0.00  0.00    -0.394 OA
HETATM    3  H41 UNK <   0      24.765  27.798  54.641  0.00  0.00     0.210 HD
ENDBRANCH   1   2
BRANCH   1   4
HETATM    4  C10 UNK <   0      23.633  29.530  56.143  0.00  0.00     0.305 C 
BRANCH   4   5
HETATM    5  N3  UNK <   0      22.763  30.670  56.459  0.00  0.00     0.108 N 
HETATM    6  C6  UNK <   0      23.269  31.412  57.623  0.00  0.00     0.342 C 
HETATM    7  C7  UNK <   0      22.296  32.541  57.968  0.00  0.00     0.318 C 
HETATM    8  N2  UNK <   0      22.147  33.428  56.807  0.00  0.00     0.097 N 
HETATM    9  C8  UNK <   0      21.641  32.687  55.643  0.00  0.00     0.303 C 
HETATM   10  C9  UNK <   0      22.615  31.558  55.297  0.00  0.00     0.303 C 
BRANCH   6  11
HETATM   11  C5  UNK <   0      23.394  30.478  58.799  0.00  0.00     0.253 C 
HETATM   12  N1  UNK <   0      22.288  29.933  59.346  0.00  0.00    -0.351 N 
HETATM   13  H15 UNK <   0      21.296  30.172  58.934  0.00  0.00     0.163 HD
HETATM   14  O1  UNK <   0      24.487  30.215  59.252  0.00  0.00    -0.271 OA
BRANCH  12  15
HETATM   15  C2  UNK <   0      22.408  29.024  60.489  0.00  0.00     0.022 C 
HETATM   16  C1  UNK <   0      22.971  27.682  60.016  0.00  0.00     0.037 C 
HETATM   17  C3  UNK <   0      23.349  29.635  61.530  0.00  0.00     0.037 C 
HETATM   18  C4  UNK <   0      21.028  28.808  61.115  0.00  0.00     0.037 C 
ENDBRANCH  12  15
ENDBRANCH   6  11
BRANCH   8  19
HETATM   19  C31 UNK <   0      21.277  34.569  57.123  0.00  0.00     0.312 C 
BRANCH  19  20
HETATM   20  C32 UNK <   0      22.078  35.626  57.840  0.00  0.00    -0.013 A 
HETATM   21  C33 UNK <   0      23.188  36.195  57.237  0.00  0.00     0.012 A 
HETATM   22  C34 UNK <   0      23.893  37.166  57.932  0.00  0.00     0.020 A 
HETATM   23  C35 UNK <   0      23.473  37.524  59.200  0.00  0.00     0.116 A 
HETATM   24  N5  UNK <   0      22.414  36.958  59.744  0.00  0.00    -0.273 NA
HETATM   25  C36 UNK <   0      21.718  36.035  59.110  0.00  0.00     0.125 A 
ENDBRANCH  19  20
ENDBRANCH   8  19
ENDBRANCH   4   5
ENDBRANCH   1   4
BRANCH   1  26
HETATM   26  C12 UNK <   0      22.220  27.492  56.451  0.00  0.00     0.047 C 
BRANCH  26  27
HETATM   27  C13 UNK <   0      20.743  27.828  56.662  0.00  0.00     0.084 C 
BRANCH  27  28
HETATM   28  C21 UNK <   0      20.051  26.661  57.318  0.00  0.00     0.222 C 
HETATM   29  O2  UNK <   0      19.834  26.678  58.512  0.00  0.00    -0.273 OA
HETATM   30  N4  UNK <   0      19.673  25.599  56.581  0.00  0.00    -0.350 N 
HETATM   31  H33 UNK <   0      19.937  25.547  55.514  0.00  0.00     0.163 HD
BRANCH  30  32
HETATM   32  C22 UNK <   0      18.908  24.512  57.199  0.00  0.00     0.147 C 
HETATM   33  C23 UNK <   0      17.431  24.840  57.193  0.00  0.00    -0.027 A 
HETATM   34  C24 UNK <   0      16.693  25.677  58.013  0.00  0.00     0.010 A 
HETATM   35  C28 UNK <   0      16.803  24.148  56.174  0.00  0.00    -0.047 A 
HETATM   36  C25 UNK <   0      15.334  25.823  57.816  0.00  0.00     0.001 A 
HETATM   37  C26 UNK <   0      14.706  25.131  56.796  0.00  0.00     0.001 A 
HETATM   38  C27 UNK <   0      15.440  24.295  55.978  0.00  0.00     0.008 A 
HETATM   39  C29 UNK <   0      17.815  23.308  55.426  0.00  0.00     0.073 C 
HETATM   40  C30 UNK <   0      19.039  23.222  56.363  0.00  0.00     0.149 C 
BRANCH  40  41
HETATM   41  O3  UNK <   0      20.256  23.224  55.613  0.00  0.00    -0.393 OA
HETATM   42  H40 UNK <   0      20.332  22.636  54.686  0.00  0.00     0.210 HD
ENDBRANCH  40  41
ENDBRANCH  30  32
ENDBRANCH  27  28
BRANCH  27  43
HETATM   43  C14 UNK <   0      20.087  28.116  55.311  0.00  0.00     0.052 C 
BRANCH  43  44
HETATM   44  C15 UNK <   0      18.644  28.492  55.523  0.00  0.00    -0.057 A 
HETATM   45  C16 UNK <   0      18.319  29.550  56.350  0.00  0.00     0.007 A 
HETATM   46  C17 UNK <   0      16.995  29.898  56.542  0.00  0.00     0.001 A 
HETATM   47  C18 UNK <   0      15.995  29.182  55.911  0.00  0.00     0.000 A 
HETATM   48  C19 UNK <   0      16.319  28.120  55.089  0.00  0.00     0.001 A 
HETATM   49  C20 UNK <   0      17.643  27.774  54.893  0.00  0.00     0.007 A 
ENDBRANCH  43  44
ENDBRANCH  27  43
ENDBRANCH  26  27
ENDBRANCH   1  26
TORSDOF 14
ENDMDL
MODEL 9
REMARK VINA RESULT:      -6.8      2.536     10.292
REMARK  14 active torsions:
REMARK  status: ('A' for Active; 'I' for Inactive)
REMARK    1  A    between atoms: C11_1  and  O4_2 
REMARK    2  A    between atoms: C11_1  and  C10_4 
REMARK    3  A    between atoms: C11_1  and  C12_26 
REMARK    4  A    between atoms: C10_4  and  N3_10 
REMARK    5  A    between atoms: C6_5  and  C5_12 
REMARK    6  A    between atoms: N2_7  and  C31_19 
REMARK       I    between atoms: N1_11  and  C5_12 
REMARK    7  A    between atoms: N1_11  and  C2_16 
REMARK    8  A    between atoms: C31_19  and  C32_20 
REMARK    9  A    between atoms: C12_26  and  C13_27 
REMARK   10  A    between atoms: C13_27  and  C21_28 
REMARK   11  A    between atoms: C13_27  and  C14_43 
REMARK       I    between atoms: C21_28  and  N4_30 
REMARK   12  A    between atoms: N4_30  and  C22_32 
REMARK   13  A    between atoms: C30_40  and  O3_41 
REMARK   14  A    between atoms: C14_43  and  C15_44 
ROOT
HETATM    1  C11 UNK <   0      18.736  33.971  56.227  0.00  0.00     0.147 C 
ENDROOT
BRANCH   1   2
HETATM    2  O4  UNK <   0      17.485  34.238  55.591  0.00  0.00    -0.394 OA
HETATM    3  H41 UNK <   0      16.923  35.149  55.847  0.00  0.00     0.210 HD
ENDBRANCH   1   2
BRANCH   1   4
HETATM    4  C10 UNK <   0      19.241  32.592  55.798  0.00  0.00     0.305 C 
BRANCH   4   5
HETATM    5  N3  UNK <   0      20.592  32.377  56.334  0.00  0.00     0.108 N 
HETATM    6  C6  UNK <   0      21.126  31.075  55.909  0.00  0.00     0.342 C 
HETATM    7  C7  UNK <   0      22.498  30.855  56.552  0.00  0.00     0.318 C 
HETATM    8  N2  UNK <   0      23.401  31.944  56.157  0.00  0.00     0.097 N 
HETATM    9  C8  UNK <   0      22.867  33.247  56.581  0.00  0.00     0.303 C 
HETATM   10  C9  UNK <   0      21.496  33.467  55.939  0.00  0.00     0.303 C 
BRANCH   6  11
HETATM   11  C5  UNK <   0      20.186  29.980  56.344  0.00  0.00     0.253 C 
HETATM   12  N1  UNK <   0      19.630  29.166  55.424  0.00  0.00    -0.351 N 
HETATM   13  H15 UNK <   0      19.863  29.302  54.357  0.00  0.00     0.163 HD
HETATM   14  O1  UNK <   0      19.930  29.831  57.519  0.00  0.00    -0.271 OA
BRANCH  12  15
HETATM   15  C2  UNK <   0      18.716  28.101  55.845  0.00  0.00     0.022 C 
HETATM   16  C1  UNK <   0      19.424  27.189  56.849  0.00  0.00     0.037 C 
HETATM   17  C3  UNK <   0      17.480  28.719  56.501  0.00  0.00     0.037 C 
HETATM   18  C4  UNK <   0      18.289  27.284  54.623  0.00  0.00     0.037 C 
ENDBRANCH  12  15
ENDBRANCH   6  11
BRANCH   8  19
HETATM   19  C31 UNK <   0      24.752  31.730  56.692  0.00  0.00     0.312 C 
BRANCH  19  20
HETATM   20  C32 UNK <   0      25.746  32.515  55.875  0.00  0.00    -0.013 A 
HETATM   21  C33 UNK <   0      26.270  31.982  54.707  0.00  0.00     0.012 A 
HETATM   22  C34 UNK <   0      27.178  32.740  53.985  0.00  0.00     0.020 A 
HETATM   23  C35 UNK <   0      27.537  33.990  54.456  0.00  0.00     0.116 A 
HETATM   24  N5  UNK <   0      27.021  34.463  55.573  0.00  0.00    -0.273 NA
HETATM   25  C36 UNK <   0      26.151  33.770  56.283  0.00  0.00     0.125 A 
ENDBRANCH  19  20
ENDBRANCH   8  19
ENDBRANCH   4   5
ENDBRANCH   1   4
BRANCH   1  26
HETATM   26  C12 UNK <   0      18.552  33.996  57.746  0.00  0.00     0.047 C 
BRANCH  26  27
HETATM   27  C13 UNK <   0      19.202  35.258  58.316  0.00  0.00     0.084 C 
BRANCH  27  28
HETATM   28  C21 UNK <   0      18.181  36.036  59.107  0.00  0.00     0.222 C 
HETATM   29  O2  UNK <   0      18.415  36.351  60.255  0.00  0.00    -0.273 OA
HETATM   30  N4  UNK <   0      17.009  36.382  58.540  0.00  0.00    -0.350 N 
HETATM   31  H33 UNK <   0      16.763  36.031  57.526  0.00  0.00     0.163 HD
BRANCH  30  32
HETATM   32  C22 UNK <   0      16.062  37.226  59.272  0.00  0.00     0.147 C 
HETATM   33  C23 UNK <   0      15.723  38.460  58.464  0.00  0.00    -0.027 A 
HETATM   34  C24 UNK <   0      16.440  39.628  58.266  0.00  0.00     0.010 A 
HETATM   35  C28 UNK <   0      14.487  38.302  57.866  0.00  0.00    -0.047 A 
HETATM   36  C25 UNK <   0      15.925  40.635  57.474  0.00  0.00     0.001 A 
HETATM   37  C26 UNK <   0      14.688  40.477  56.876  0.00  0.00     0.001 A 
HETATM   38  C27 UNK <   0      13.971  39.313  57.072  0.00  0.00     0.008 A 
HETATM   39  C29 UNK <   0      13.909  36.953  58.232  0.00  0.00     0.073 C 
HETATM   40  C30 UNK <   0      14.720  36.486  59.460  0.00  0.00     0.149 C 
BRANCH  40  41
HETATM   41  O3  UNK <   0      14.913  35.070  59.435  0.00  0.00    -0.393 OA
HETATM   42  H40 UNK <   0      15.504  34.581  60.224  0.00  0.00     0.210 HD
ENDBRANCH  40  41
ENDBRANCH  30  32
ENDBRANCH  27  28
BRANCH  27  43
HETATM   43  C14 UNK <   0      19.728  36.124  57.171  0.00  0.00     0.052 C 
BRANCH  43  44
HETATM   44  C15 UNK <   0      20.968  36.853  57.620  0.00  0.00    -0.057 A 
HETATM   45  C16 UNK <   0      21.215  38.137  57.172  0.00  0.00     0.007 A 
HETATM   46  C17 UNK <   0      22.351  38.808  57.588  0.00  0.00     0.001 A 
HETATM   47  C18 UNK <   0      23.242  38.191  58.446  0.00  0.00     0.000 A 
HETATM   48  C19 UNK <   0      22.998  36.905  58.889  0.00  0.00     0.001 A 
HETATM   49  C20 UNK <   0      21.860  36.235  58.477  0.00  0.00     0.007 A 
ENDBRANCH  43  44
ENDBRANCH  27  43
ENDBRANCH  26  27
ENDBRANCH   1  26
TORSDOF 14
ENDMDL
