REMARK  Name = ZINC06754594
REMARK                            x       y       z     vdW  Elec       q    Type
REMARK                         _______ _______ _______ _____ _____    ______ ____
ROOT
ATOM      1  N   LIG    1       -0.017   1.368   0.010  0.00  0.00    -0.312 N 
ATOM      2  C   LIG    1        1.280   1.794  -0.001  0.00  0.00    +0.201 A 
ATOM      3  N   LIG    1        2.083   0.772  -0.014  0.00  0.00    -0.231 NA
ATOM      4  C   LIG    1        1.357  -0.373  -0.013  0.00  0.00    +0.148 A 
ATOM      5  C   LIG    1        1.675  -1.742  -0.023  0.00  0.00    +0.152 A 
ATOM      6  N   LIG    1        0.682  -2.625  -0.018  0.00  0.00    -0.197 NA
ATOM      7  C   LIG    1       -0.585  -2.232  -0.004  0.00  0.00    +0.219 A 
ATOM      8  N   LIG    1       -0.928  -0.954   0.006  0.00  0.00    -0.195 NA
ATOM      9  C   LIG    1        0.002  -0.004   0.002  0.00  0.00    +0.167 A 
ENDROOT
BRANCH   1  11
ATOM     10  C   LIG    1       -1.199   3.095   1.274  0.00  0.00    +0.030 C 
ATOM     11  C   LIG    1       -1.209   2.219   0.020  0.00  0.00    +0.084 C 
ATOM     12  C   LIG    1       -1.212   3.109  -1.224  0.00  0.00    +0.030 C 
ENDBRANCH   1  11
BRANCH   5  13
ATOM     13  N   LIG    1        2.993  -2.162  -0.038  0.00  0.00    -0.323 N 
ATOM     14  H   LIG    1        3.446  -1.810  -0.857  0.00  0.00    +0.148 HD
BRANCH  13  15
ATOM     15  C   LIG    1        3.306  -3.593  -0.049  0.00  0.00    +0.142 C 
BRANCH  15  16
ATOM     16  C   LIG    1        4.801  -3.780  -0.065  0.00  0.00    +0.011 A 
ATOM     17  C   LIG    1        5.449  -4.072  -1.250  0.00  0.00    +0.009 A 
ATOM     18  C   LIG    1        6.822  -4.238  -1.266  0.00  0.00    +0.001 A 
ATOM     19  C   LIG    1        7.548  -4.125  -0.095  0.00  0.00    +0.004 A 
ATOM     20  C   LIG    1        6.904  -3.839   1.094  0.00  0.00    +0.046 A 
ATOM     21  C   LIG    1        5.528  -3.666   1.111  0.00  0.00    +0.122 A 
BRANCH  21  22
ATOM     22  O   LIG    1        4.892  -3.385   2.279  0.00  0.00    -0.506 OA
ATOM     23  H   LIG    1        4.602  -4.168   2.767  0.00  0.00    +0.292 HD
ENDBRANCH  21  22
ENDBRANCH  15  16
ENDBRANCH  13  15
ENDBRANCH   5  13
BRANCH   7  24
ATOM     24  N   LIG    1       -1.584  -3.192   0.001  0.00  0.00    -0.313 N 
ATOM     25  H   LIG    1       -2.515  -2.923   0.011  0.00  0.00    +0.149 HD
BRANCH  24  26
ATOM     26  C   LIG    1       -1.232  -4.614  -0.010  0.00  0.00    +0.106 C 
BRANCH  26  27
ATOM     27  C   LIG    1       -2.510  -5.455  -0.002  0.00  0.00    +0.046 C 
BRANCH  27  28
ATOM     28  C   LIG    1       -2.143  -6.941  -0.013  0.00  0.00    +0.157 C 
BRANCH  28  29
ATOM     29  O   LIG    1       -3.337  -7.726  -0.006  0.00  0.00    -0.395 OA
ATOM     30  H   LIG    1       -3.179  -8.681  -0.013  0.00  0.00    +0.209 HD
ENDBRANCH  28  29
ENDBRANCH  27  28
ENDBRANCH  26  27
ENDBRANCH  24  26
ENDBRANCH   7  24
TORSDOF 10
