REMARK  Name = ZINC06475935
REMARK                            x       y       z     vdW  Elec       q    Type
REMARK                         _______ _______ _______ _____ _____    ______ ____
ROOT
ATOM      1  C   LIG    1        3.697  -0.687  -0.038  0.00  0.00    -0.003 A 
ATOM      2  C   LIG    1        4.675  -0.338  -0.968  0.00  0.00    +0.035 A 
ATOM      3  C   LIG    1        5.892  -1.006  -0.994  0.00  0.00    +0.049 A 
ATOM      4  C   LIG    1        6.142  -2.046  -0.073  0.00  0.00    +0.021 A 
ATOM      5  C   LIG    1        5.168  -2.400   0.861  0.00  0.00    +0.062 A 
ATOM      6  C   LIG    1        5.088  -3.405   1.939  0.00  0.00    +0.260 A 
ATOM      7  O   LIG    1        5.962  -4.194   2.239  0.00  0.00    -0.267 OA
ATOM      8  N   LIG    1        3.893  -3.289   2.545  0.00  0.00    -0.289 N 
ATOM      9  H   LIG    1        3.598  -3.837   3.288  0.00  0.00    +0.172 HD
ATOM     10  C   LIG    1        3.155  -2.319   1.974  0.00  0.00    +0.260 A 
ATOM     11  O   LIG    1        2.031  -1.997   2.302  0.00  0.00    -0.267 OA
ATOM     12  C   LIG    1        7.499  -2.539  -0.361  0.00  0.00    +0.012 A 
ATOM     13  C   LIG    1        8.293  -3.539   0.200  0.00  0.00    +0.056 A 
ATOM     14  C   LIG    1        9.559  -3.772  -0.304  0.00  0.00    +0.118 A 
ATOM     15  C   LIG    1       10.039  -3.011  -1.365  0.00  0.00    +0.047 A 
ATOM     16  C   LIG    1        9.261  -2.021  -1.925  0.00  0.00    +0.030 A 
ATOM     17  C   LIG    1        7.984  -1.773  -1.431  0.00  0.00    +0.048 A 
ATOM     18  N   LIG    1        7.007  -0.861  -1.796  0.00  0.00    -0.354 N 
ATOM     19  H   LIG    1        7.094  -0.213  -2.512  0.00  0.00    +0.166 HD
ATOM     20  C   LIG    1        3.939  -1.713   0.883  0.00  0.00    +0.060 A 
ENDROOT
BRANCH   1  24
ATOM     21  C   LIG    1       -0.017   1.379   0.010  0.00  0.00    +0.000 A 
ATOM     22  C   LIG    1        1.169   2.093   0.002  0.00  0.00    +0.001 A 
ATOM     23  C   LIG    1        2.377   1.428  -0.013  0.00  0.00    +0.008 A 
ATOM     24  C   LIG    1        2.403   0.033  -0.021  0.00  0.00    -0.017 A 
ATOM     25  C   LIG    1        1.205  -0.680  -0.013  0.00  0.00    +0.008 A 
ATOM     26  C   LIG    1        0.002  -0.004   0.002  0.00  0.00    +0.001 A 
ENDBRANCH   1  24
BRANCH  14  27
ATOM     27  O   LIG    1       10.338  -4.746   0.240  0.00  0.00    -0.507 OA
ATOM     28  H   LIG    1       10.228  -5.613  -0.174  0.00  0.00    +0.292 HD
ENDBRANCH  14  27
TORSDOF 2
