REMARK  Name = ZINC08438485
REMARK                            x       y       z     vdW  Elec       q    Type
REMARK                         _______ _______ _______ _____ _____    ______ ____
ROOT
ATOM      1  C   LIG    1        0.197   3.707  -8.721  0.00  0.00    +0.035 A 
ATOM      2  C   LIG    1       -1.025   3.365  -8.147  0.00  0.00    +0.025 A 
ATOM      3  C   LIG    1       -1.093   2.688  -6.969  0.00  0.00    +0.031 A 
ATOM      4  C   LIG    1        0.082   2.305  -6.281  0.00  0.00    +0.080 A 
ATOM      5  C   LIG    1        1.307   2.666  -6.886  0.00  0.00    +0.042 A 
ATOM      6  S   LIG    1        2.501   2.026  -5.737  0.00  0.00    -0.061 S 
ATOM      7  C   LIG    1        1.339   1.334  -4.568  0.00  0.00    +0.136 A 
ATOM      8  N   LIG    1        0.181   1.634  -5.112  0.00  0.00    -0.233 NA
ATOM      9  C   LIG    1        1.373   3.348  -8.075  0.00  0.00    +0.040 A 
ENDROOT
BRANCH   1  11
ATOM     10  C   LIG    1        1.225   4.158 -10.820  0.00  0.00    +0.248 C 
ATOM     11  N   LIG    1        0.239   4.405  -9.935  0.00  0.00    -0.281 N 
ATOM     12  H   LIG    1       -0.441   5.066 -10.138  0.00  0.00    +0.155 HD
ATOM     13  O   LIG    1        2.020   3.262 -10.610  0.00  0.00    -0.270 OA
BRANCH  10  17
ATOM     14  C   LIG    1        1.553   6.506 -14.343  0.00  0.00    +0.121 A 
ATOM     15  C   LIG    1        2.463   5.483 -14.105  0.00  0.00    +0.046 A 
ATOM     16  C   LIG    1        2.360   4.719 -12.964  0.00  0.00    +0.016 A 
ATOM     17  C   LIG    1        1.339   4.974 -12.044  0.00  0.00    +0.037 A 
ATOM     18  C   LIG    1        0.422   6.000 -12.290  0.00  0.00    +0.016 A 
ATOM     19  C   LIG    1        0.536   6.763 -13.431  0.00  0.00    +0.046 A 
BRANCH  14  20
ATOM     20  O   LIG    1        1.658   7.257 -15.468  0.00  0.00    -0.492 OA
BRANCH  20  21
ATOM     21  C   LIG    1        0.690   8.292 -15.650  0.00  0.00    +0.229 C 
BRANCH  21  22
ATOM     22  C   LIG    1        0.968   9.025 -16.965  0.00  0.00    +0.041 C 
BRANCH  22  24
ATOM     23  C   LIG    1        0.209  10.866 -18.474  0.00  0.00    +0.004 C 
ATOM     24  C   LIG    1       -0.069  10.133 -17.160  0.00  0.00    -0.000 C 
ENDBRANCH  22  24
ENDBRANCH  21  22
ENDBRANCH  20  21
ENDBRANCH  14  20
ENDBRANCH  10  17
ENDBRANCH   1  11
BRANCH   7  25
ATOM     25  S   LIG    1        1.663   0.473  -3.065  0.00  0.00    -0.094 S 
BRANCH  25  26
ATOM     26  C   LIG    1       -0.030   0.142  -2.520  0.00  0.00    +0.112 C 
BRANCH  26  27
ATOM     27  C   LIG    1       -0.000  -0.609  -1.214  0.00  0.00    -0.031 A 
ATOM     28  C   LIG    1        0.002   0.088  -0.018  0.00  0.00    -0.046 A 
ATOM     29  C   LIG    1       -0.025   1.594  -0.027  0.00  0.00    +0.044 C 
ATOM     30  C   LIG    1        0.024  -0.593   1.187  0.00  0.00    +0.007 A 
ATOM     31  C   LIG    1        0.049  -1.971   1.204  0.00  0.00    -0.039 A 
ATOM     32  C   LIG    1        0.074  -2.710   2.518  0.00  0.00    +0.044 C 
ATOM     33  C   LIG    1        0.052  -2.682   0.000  0.00  0.00    +0.023 A 
ATOM     34  C   LIG    1        0.029  -1.987  -1.214  0.00  0.00    -0.036 A 
ATOM     35  C   LIG    1        0.032  -2.743  -2.517  0.00  0.00    +0.045 C 
BRANCH  33  36
ATOM     36  C   LIG    1        0.078  -4.153   0.010  0.00  0.00    +0.161 C 
ATOM     37  C   LIG    1       -1.210  -4.930  -0.088  0.00  0.00    +0.091 C 
ATOM     38  O   LIG    1        1.135  -4.740   0.096  0.00  0.00    -0.292 OA
ENDBRANCH  33  36
ENDBRANCH  26  27
ENDBRANCH  25  26
ENDBRANCH   7  25
TORSDOF 10
