REMARK  Name = ZINC06032206
REMARK                            x       y       z     vdW  Elec       q    Type
REMARK                         _______ _______ _______ _____ _____    ______ ____
ROOT
ATOM      1  C   LIG    1        2.046   1.895   1.250  0.00  0.00    +0.037 C 
ATOM      2  C   LIG    1        1.191   2.124   0.002  0.00  0.00    +0.116 C 
ATOM      3  C   LIG    1        0.597   3.514   0.015  0.00  0.00    -0.001 A 
ATOM      4  C   LIG    1        1.158   4.767   0.016  0.00  0.00    +0.017 A 
ATOM      5  C   LIG    1        0.335   5.898   0.030  0.00  0.00    -0.001 A 
ATOM      6  C   LIG    1       -1.054   5.737   0.042  0.00  0.00    +0.011 A 
ATOM      7  C   LIG    1       -1.605   4.477   0.041  0.00  0.00    +0.024 A 
ATOM      8  C   LIG    1       -0.784   3.348   0.028  0.00  0.00    +0.038 A 
ATOM      9  N   LIG    1       -1.106   1.992   0.017  0.00  0.00    -0.284 N 
ATOM     10  H   LIG    1       -2.160   1.676   0.017  0.00  0.00    +0.155 HD
ATOM     11  C   LIG    1       -0.014   1.209   0.009  0.00  0.00    +0.237 C 
ATOM     12  O   LIG    1        0.002  -0.004   0.002  0.00  0.00    -0.274 OA
ENDROOT
BRANCH   5  13
ATOM     13  C   LIG    1        0.927   7.248   0.031  0.00  0.00    +0.077 C 
ATOM     14  N   LIG    1        2.206   7.356   0.025  0.00  0.00    -0.183 NA
ATOM     15  N   LIG    1        2.905   8.556   0.015  0.00  0.00    -0.198 N 
ATOM     16  H   LIG    1        3.935   8.589  -0.369  0.00  0.00    +0.178 HD
ATOM     17  C   LIG    1        2.378   9.710   0.460  0.00  0.00    +0.292 C 
ATOM     18  S   LIG    1        0.726   9.739   1.077  0.00  0.00    -0.060 S 
ATOM     19  O   LIG    1        3.039  10.731   0.439  0.00  0.00    -0.261 OA
ATOM     20  C   LIG    1        0.005   8.435   0.046  0.00  0.00    +0.136 C 
ENDBRANCH   5  13
BRANCH   2  21
ATOM     21  S   LIG    1        2.178   1.865  -1.498  0.00  0.00    -0.144 S 
ATOM     22  C   LIG    1        2.699   0.131  -1.387  0.00  0.00    +0.085 C 
ENDBRANCH   2  21
TORSDOF 2
