REMARK  Name = ZINC06576216
REMARK                            x       y       z     vdW  Elec       q    Type
REMARK                         _______ _______ _______ _____ _____    ______ ____
ROOT
ATOM      1  C   LIG    1       -1.297  -0.762   0.006  0.00  0.00    +0.104 C 
ATOM      2  C   LIG    1        0.002  -0.004   0.002  0.00  0.00    +0.007 A 
ATOM      3  C   LIG    1       -0.017   1.379   0.010  0.00  0.00    +0.008 A 
ATOM      4  C   LIG    1        1.168   2.090   0.002  0.00  0.00    +0.001 A 
ATOM      5  C   LIG    1        2.378   1.420  -0.011  0.00  0.00    +0.004 A 
ATOM      6  C   LIG    1        2.403   0.040  -0.019  0.00  0.00    +0.046 A 
ATOM      7  C   LIG    1        1.213  -0.678  -0.011  0.00  0.00    +0.133 A 
ATOM      8  O   LIG    1        1.252  -2.032  -0.019  0.00  0.00    -0.454 OA
ATOM      9  C   LIG    1        0.178  -2.742   0.366  0.00  0.00    +0.150 A 
ATOM     10  C   LIG    1        0.322  -4.152   0.764  0.00  0.00    +0.060 A 
ATOM     11  C   LIG    1        1.570  -4.777   0.753  0.00  0.00    +0.015 A 
ATOM     12  C   LIG    1        1.674  -6.098   1.129  0.00  0.00    +0.001 A 
ATOM     13  C   LIG    1        0.545  -6.804   1.515  0.00  0.00    +0.004 A 
ATOM     14  C   LIG    1       -0.694  -6.198   1.532  0.00  0.00    +0.047 A 
ATOM     15  C   LIG    1       -0.821  -4.865   1.157  0.00  0.00    +0.143 A 
ATOM     16  O   LIG    1       -2.029  -4.267   1.173  0.00  0.00    -0.422 OA
ATOM     17  C   LIG    1       -2.156  -2.986   0.814  0.00  0.00    +0.345 A 
ATOM     18  O   LIG    1       -3.265  -2.481   0.845  0.00  0.00    -0.245 OA
ATOM     19  C   LIG    1       -1.071  -2.195   0.403  0.00  0.00    +0.092 A 
ENDROOT
BRANCH   1  26
ATOM     20  C   LIG    1       -5.423   0.414  -4.483  0.00  0.00    +0.001 A 
ATOM     21  C   LIG    1       -4.671  -0.131  -5.514  0.00  0.00    +0.004 A 
ATOM     22  C   LIG    1       -3.431  -0.680  -5.265  0.00  0.00    +0.047 A 
ATOM     23  C   LIG    1       -2.925  -0.692  -3.971  0.00  0.00    +0.143 A 
ATOM     24  C   LIG    1       -3.685  -0.142  -2.928  0.00  0.00    +0.059 A 
ATOM     25  C   LIG    1       -3.138  -0.161  -1.562  0.00  0.00    +0.138 A 
ATOM     26  C   LIG    1       -1.904  -0.718  -1.373  0.00  0.00    +0.091 A 
ATOM     27  C   LIG    1       -1.202  -1.243  -2.468  0.00  0.00    +0.345 A 
ATOM     28  O   LIG    1       -0.100  -1.732  -2.287  0.00  0.00    -0.245 OA
ATOM     29  O   LIG    1       -1.712  -1.226  -3.710  0.00  0.00    -0.422 OA
ATOM     30  C   LIG    1       -4.940   0.411  -3.194  0.00  0.00    +0.015 A 
BRANCH  25  31
ATOM     31  O   LIG    1       -3.835   0.357  -0.525  0.00  0.00    -0.506 OA
ATOM     32  H   LIG    1       -3.411   0.335   0.489  0.00  0.00    +0.292 HD
ENDBRANCH  25  31
ENDBRANCH   1  26
TORSDOF 2
