REMARK  Name = ZINC06070261
REMARK                            x       y       z     vdW  Elec       q    Type
REMARK                         _______ _______ _______ _____ _____    ______ ____
ROOT
ATOM      1  C   LIG    1       -2.298   7.357   5.554  0.00  0.00    +0.044 C 
ATOM      2  C   LIG    1       -1.698   6.770   4.303  0.00  0.00    -0.036 A 
ATOM      3  C   LIG    1       -1.664   5.396   4.135  0.00  0.00    +0.016 A 
ATOM      4  C   LIG    1       -1.112   4.847   2.984  0.00  0.00    +0.040 A 
ATOM      5  C   LIG    1       -0.585   5.685   1.983  0.00  0.00    +0.075 A 
ATOM      6  C   LIG    1       -0.004   5.077   0.769  0.00  0.00    +0.194 C 
ATOM      7  C   LIG    1        0.295   3.639   0.755  0.00  0.00    +0.101 C 
ATOM      8  C   LIG    1       -0.210   2.826   1.707  0.00  0.00    +0.171 C 
ATOM      9  O   LIG    1        0.229   5.762  -0.209  0.00  0.00    -0.287 OA
ATOM     10  C   LIG    1       -0.617   7.069   2.147  0.00  0.00    +0.139 A 
ATOM     11  C   LIG    1       -1.065   3.380   2.785  0.00  0.00    +0.228 C 
ATOM     12  O   LIG    1       -1.717   2.641   3.495  0.00  0.00    -0.283 OA
ATOM     13  C   LIG    1       -1.180   7.614   3.320  0.00  0.00    +0.062 A 
ENDROOT
BRANCH  13  14
ATOM     14  C   LIG    1       -1.220   9.072   3.507  0.00  0.00    +0.164 C 
ATOM     15  C   LIG    1       -2.445   9.850   3.102  0.00  0.00    +0.092 C 
ATOM     16  O   LIG    1       -0.267   9.648   3.987  0.00  0.00    -0.292 OA
ENDBRANCH  13  14
BRANCH   8  17
ATOM     17  O   LIG    1        0.069   1.501   1.681  0.00  0.00    -0.491 OA
ATOM     18  C   LIG    1        0.898   1.034   0.615  0.00  0.00    +0.277 C 
ENDBRANCH   8  17
BRANCH  10  19
ATOM     19  O   LIG    1       -0.113   7.882   1.191  0.00  0.00    -0.505 OA
ATOM     20  H   LIG    1       -0.757   8.147   0.520  0.00  0.00    +0.292 HD
ENDBRANCH  10  19
TORSDOF 3
