REMARK  Name = ZINC08217391
REMARK                            x       y       z     vdW  Elec       q    Type
REMARK                         _______ _______ _______ _____ _____    ______ ____
ROOT
ATOM      1  C   LIG    1       -2.639   9.576   2.797  0.00  0.00    +0.253 C 
ATOM      2  C   LIG    1       -1.565  10.694   2.794  0.00  0.00    +0.195 C 
ATOM      3  C   LIG    1       -0.713  10.322   1.556  0.00  0.00    +0.178 C 
ATOM      4  C   LIG    1       -1.015   8.828   1.326  0.00  0.00    +0.178 C 
ATOM      5  O   LIG    1       -1.909   8.407   2.370  0.00  0.00    -0.346 OA
ENDROOT
BRANCH   1  16
ATOM      6  C   LIG    1       -2.711   8.514   5.087  0.00  0.00    +0.203 A 
ATOM      7  N   LIG    1       -3.429   8.606   6.168  0.00  0.00    -0.229 NA
ATOM      8  C   LIG    1       -4.405   9.528   5.981  0.00  0.00    +0.172 A 
ATOM      9  C   LIG    1       -5.454  10.028   6.788  0.00  0.00    +0.280 A 
ATOM     10  N   LIG    1       -6.267  10.974   6.268  0.00  0.00    -0.293 N 
ATOM     11  C   LIG    1       -6.072  11.428   4.998  0.00  0.00    +0.195 A 
ATOM     12  N   LIG    1       -5.101  10.971   4.239  0.00  0.00    -0.196 NA
ATOM     13  H   LIG    1       -7.016  11.344   6.818  0.00  0.00    +0.172 HD
ATOM     14  O   LIG    1       -5.621   9.616   7.923  0.00  0.00    -0.265 OA
ATOM     15  C   LIG    1       -4.256  10.034   4.685  0.00  0.00    +0.171 A 
ATOM     16  N   LIG    1       -3.182   9.383   4.144  0.00  0.00    -0.285 N 
BRANCH  11  17
ATOM     17  N   LIG    1       -6.913  12.389   4.497  0.00  0.00    -0.329 N 
ATOM     18  H   LIG    1       -6.787  12.722   3.594  0.00  0.00    +0.145 HD
ATOM     19  H   LIG    1       -7.852  12.044   4.497  0.00  0.00    +0.145 HD
ENDBRANCH  11  17
ENDBRANCH   1  16
BRANCH   2  20
ATOM     20  O   LIG    1       -2.168  11.980   2.630  0.00  0.00    -0.385 OA
ATOM     21  H   LIG    1       -1.536  12.712   2.621  0.00  0.00    +0.210 HD
ENDBRANCH   2  20
BRANCH   3  22
ATOM     22  O   LIG    1       -1.113  11.093   0.422  0.00  0.00    -0.386 OA
ATOM     23  H   LIG    1       -0.946  12.041   0.513  0.00  0.00    +0.210 HD
ENDBRANCH   3  22
BRANCH   4  24
ATOM     24  C   LIG    1        0.282   8.019   1.393  0.00  0.00    +0.206 C 
BRANCH  24  25
ATOM     25  O   LIG    1        0.007   6.652   1.080  0.00  0.00    -0.284 OA
BRANCH  25  26
ATOM     26  P   LIG    1        1.144   5.512   1.055  0.00  0.00    +0.483 P 
ATOM     27  O   LIG    1        2.234   5.923   0.142  0.00  0.00    -0.227 OA
BRANCH  26  28
ATOM     28  O   LIG    1        1.734   5.310   2.539  0.00  0.00    -0.302 OA
ATOM     29  H   LIG    1        2.119   6.144   2.850  0.00  0.00    +0.222 HD
ENDBRANCH  26  28
BRANCH  26  30
ATOM     30  O   LIG    1        0.504   4.128   0.539  0.00  0.00    -0.186 OA
BRANCH  30  31
ATOM     31  P   LIG    1        1.123   2.740   0.006  0.00  0.00    +0.490 P 
ATOM     32  O   LIG    1        2.235   2.324   0.890  0.00  0.00    -0.227 OA
BRANCH  31  33
ATOM     33  O   LIG    1        1.675   2.939  -1.493  0.00  0.00    -0.302 OA
ATOM     34  H   LIG    1        2.364   3.622  -1.496  0.00  0.00    +0.222 HD
ENDBRANCH  31  33
BRANCH  31  35
ATOM     35  O   LIG    1       -0.020   1.606   0.011  0.00  0.00    -0.211 OA
BRANCH  35  36
ATOM     36  P   LIG    1        0.002  -0.004   0.002  0.00  0.00    +0.312 P 
ATOM     37  S   LIG    1        0.903  -0.621   1.512  0.00  0.00    +0.023 S 
BRANCH  36  38
ATOM     38  O   LIG    1        0.756  -0.523  -1.323  0.00  0.00    -0.327 OA
ATOM     39  H   LIG    1        0.340  -0.239  -2.148  0.00  0.00    +0.219 HD
ENDBRANCH  36  38
BRANCH  36  40
ATOM     40  O   LIG    1       -1.508  -0.561   0.013  0.00  0.00    -0.327 OA
ATOM     41  H   LIG    1       -1.572  -1.526   0.009  0.00  0.00    +0.219 HD
ENDBRANCH  36  40
ENDBRANCH  35  36
ENDBRANCH  31  35
ENDBRANCH  30  31
ENDBRANCH  26  30
ENDBRANCH  25  26
ENDBRANCH  24  25
ENDBRANCH   4  24
TORSDOF 15
