REMARK  Name = ZINC08022586
REMARK                            x       y       z     vdW  Elec       q    Type
REMARK                         _______ _______ _______ _____ _____    ______ ____
ROOT
ATOM      1  C   LIG    1        2.377   5.186  -0.392  0.00  0.00    +0.223 C 
ATOM      2  N   LIG    1        2.365   3.897   0.001  0.00  0.00    -0.279 N 
ATOM      3  H   LIG    1        3.189   3.466   0.279  0.00  0.00    +0.155 HD
ATOM      4  O   LIG    1        1.336   5.751  -0.652  0.00  0.00    -0.275 OA
ENDROOT
BRANCH   2   5
ATOM      5  C   LIG    1        1.159   3.176   0.008  0.00  0.00    +0.118 A 
ATOM      6  C   LIG    1        0.761   2.473  -1.125  0.00  0.00    +0.148 A 
ATOM      7  C   LIG    1       -0.429   1.762  -1.116  0.00  0.00    +0.093 A 
ATOM      8  C   LIG    1       -1.225   1.756   0.019  0.00  0.00    +0.127 A 
ATOM      9  C   LIG    1       -0.828   2.451   1.152  0.00  0.00    +0.093 A 
ATOM     10  C   LIG    1        0.361   3.163   1.147  0.00  0.00    +0.148 A 
BRANCH   6  11
ATOM     11  O   LIG    1        1.539   2.483  -2.240  0.00  0.00    -0.493 OA
ATOM     12  C   LIG    1        1.068   1.740  -3.366  0.00  0.00    +0.277 C 
ENDBRANCH   6  11
BRANCH   8  13
ATOM     13  O   LIG    1       -2.395   1.063   0.024  0.00  0.00    -0.495 OA
ATOM     14  C   LIG    1       -3.166   1.099   1.227  0.00  0.00    +0.277 C 
ENDBRANCH   8  13
BRANCH  10  15
ATOM     15  O   LIG    1        0.748   3.849   2.256  0.00  0.00    -0.493 OA
ATOM     16  C   LIG    1       -0.121   3.792   3.389  0.00  0.00    +0.277 C 
ENDBRANCH  10  15
ENDBRANCH   2   5
BRANCH   1  17
ATOM     17  C   LIG    1        3.685   5.926  -0.507  0.00  0.00    +0.042 C 
ATOM     18  C   LIG    1        4.582   5.221  -1.527  0.00  0.00    +0.020 C 
ATOM     19  C   LIG    1        4.381   5.947   0.855  0.00  0.00    +0.020 C 
BRANCH  17  20
ATOM     20  C   LIG    1        3.420   7.361  -0.968  0.00  0.00    +0.015 C 
BRANCH  20  21
ATOM     21  C   LIG    1        4.748   8.112  -1.085  0.00  0.00    +0.001 C 
BRANCH  21  22
ATOM     22  C   LIG    1        4.483   9.547  -1.545  0.00  0.00    +0.000 C 
BRANCH  22  23
ATOM     23  C   LIG    1        5.811  10.298  -1.663  0.00  0.00    +0.000 C 
BRANCH  23  24
ATOM     24  C   LIG    1        5.546  11.733  -2.123  0.00  0.00    +0.000 C 
BRANCH  24  25
ATOM     25  C   LIG    1        6.873  12.484  -2.240  0.00  0.00    -0.000 C 
BRANCH  25  26
ATOM     26  C   LIG    1        6.608  13.919  -2.700  0.00  0.00    -0.000 C 
BRANCH  26  27
ATOM     27  C   LIG    1        7.936  14.670  -2.818  0.00  0.00    -0.000 C 
BRANCH  27  29
ATOM     28  C   LIG    1        8.999  16.857  -3.396  0.00  0.00    +0.004 C 
ATOM     29  C   LIG    1        7.671  16.105  -3.278  0.00  0.00    -0.003 C 
ENDBRANCH  27  29
ENDBRANCH  26  27
ENDBRANCH  25  26
ENDBRANCH  24  25
ENDBRANCH  23  24
ENDBRANCH  22  23
ENDBRANCH  21  22
ENDBRANCH  20  21
ENDBRANCH  17  20
ENDBRANCH   1  17
TORSDOF 14
