REMARK  Name = ZINC05958046
REMARK                            x       y       z     vdW  Elec       q    Type
REMARK                         _______ _______ _______ _____ _____    ______ ____
ROOT
ATOM      1  C   LIG    1        2.928   1.918  -0.121  0.00  0.00    +0.035 C 
ENDROOT
BRANCH   1   2
ATOM      2  C   LIG    1        1.816   2.920   0.055  0.00  0.00    -0.025 A 
ATOM      3  C   LIG    1        2.091   4.273   0.010  0.00  0.00    +0.005 A 
ATOM      4  C   LIG    1        1.071   5.192   0.170  0.00  0.00    +0.000 A 
ATOM      5  C   LIG    1       -0.225   4.758   0.375  0.00  0.00    +0.001 A 
ATOM      6  C   LIG    1       -0.502   3.404   0.415  0.00  0.00    +0.020 A 
ATOM      7  C   LIG    1        0.519   2.484   0.260  0.00  0.00    +0.044 A 
ATOM      8 CL   LIG    1        0.173   0.784   0.317  0.00  0.00    -0.083 Cl
ENDBRANCH   1   2
BRANCH   1   9
ATOM      9  C   LIG    1        3.974   2.119   0.978  0.00  0.00    +0.071 C 
ATOM     10  C   LIG    1        5.036   1.022   0.878  0.00  0.00    +0.035 C 
ATOM     11  C   LIG    1        6.081   1.223   1.978  0.00  0.00    +0.003 C 
ATOM     12  C   LIG    1        5.401   1.151   3.347  0.00  0.00    +0.000 C 
ATOM     13  C   LIG    1        4.339   2.248   3.446  0.00  0.00    +0.003 C 
ATOM     14  C   LIG    1        3.294   2.047   2.347  0.00  0.00    +0.035 C 
BRANCH   9  15
ATOM     15  O   LIG    1        4.592   3.397   0.820  0.00  0.00    -0.388 OA
ATOM     16  H   LIG    1        5.268   3.592   1.484  0.00  0.00    +0.210 HD
ENDBRANCH   9  15
ENDBRANCH   1   9
BRANCH   1  17
ATOM     17  C   LIG    1        3.583   2.117  -1.490  0.00  0.00    -0.069 C 
BRANCH  17  19
ATOM     18  C   LIG    1        3.061   2.321  -3.845  0.00  0.00    -0.097 C 
ATOM     19  N   LIG    1        2.589   1.812  -2.540  0.00  0.00    +0.376 N 
ATOM     20  H   LIG    1        1.702   2.272  -2.304  0.00  0.00    -0.083 HD
ATOM     21  C   LIG    1        2.368   0.353  -2.617  0.00  0.00    -0.097 C 
ENDBRANCH  17  19
ENDBRANCH   1  17
TORSDOF 5
