REMARK  Name = ZINC05996560
REMARK                            x       y       z     vdW  Elec       q    Type
REMARK                         _______ _______ _______ _____ _____    ______ ____
ROOT
ATOM      1  C   LIG    1       -2.230  -1.479   4.105  0.00  0.00    +0.149 A 
ATOM      2  C   LIG    1       -1.150  -1.186   3.255  0.00  0.00    +0.147 A 
ATOM      3  C   LIG    1       -1.433  -0.703   1.966  0.00  0.00    +0.166 A 
ATOM      4  N   LIG    1       -0.218  -0.503   1.362  0.00  0.00    -0.310 N 
ATOM      5  C   LIG    1        0.747  -0.860   2.256  0.00  0.00    +0.202 A 
ATOM      6  N   LIG    1       -2.701  -0.542   1.601  0.00  0.00    -0.216 NA
ATOM      7  C   LIG    1       -3.681  -0.829   2.432  0.00  0.00    +0.225 A 
ATOM      8  N   LIG    1        0.198  -1.255   3.368  0.00  0.00    -0.231 NA
ATOM      9  N   LIG    1       -3.464  -1.286   3.652  0.00  0.00    -0.219 NA
ENDROOT
BRANCH   1  11
ATOM     10  C   LIG    1       -3.151  -2.259   6.258  0.00  0.00    +0.127 C 
ATOM     11  N   LIG    1       -2.013  -1.959   5.385  0.00  0.00    -0.330 N 
ATOM     12  H   LIG    1       -1.442  -1.258   5.812  0.00  0.00    +0.147 HD
ENDBRANCH   1  11
BRANCH   4  13
ATOM     13  C   LIG    1        0.002  -0.004   0.002  0.00  0.00    +0.162 C 
BRANCH  13  14
ATOM     14  C   LIG    1       -0.018   1.503   0.010  0.00  0.00    +0.007 A 
ATOM     15  C   LIG    1        1.169   2.210   0.003  0.00  0.00    +0.008 A 
ATOM     16  C   LIG    1        1.151   3.592   0.010  0.00  0.00    +0.000 A 
ATOM     17  C   LIG    1       -0.055   4.269   0.024  0.00  0.00    +0.003 A 
ATOM     18  C   LIG    1       -1.244   3.563   0.031  0.00  0.00    +0.039 A 
ATOM     19  C   LIG    1       -1.226   2.179   0.020  0.00  0.00    +0.128 A 
ATOM     20  F   LIG    1       -2.388   1.488   0.021  0.00  0.00    -0.205 F 
ENDBRANCH  13  14
ENDBRANCH   4  13
TORSDOF 3
