REMARK  Name = ZINC06188047
REMARK                            x       y       z     vdW  Elec       q    Type
REMARK                         _______ _______ _______ _____ _____    ______ ____
ROOT
ATOM      1  C   LIG    1       -2.646   6.727  -4.004  0.00  0.00    +0.157 C 
ATOM      2  N   LIG    1       -3.039   5.503  -3.303  0.00  0.00    -0.264 N 
ATOM      3  C   LIG    1       -2.700   5.334  -2.010  0.00  0.00    +0.262 A 
ATOM      4  C   LIG    1       -3.079   4.160  -1.341  0.00  0.00    +0.059 A 
ATOM      5  C   LIG    1       -3.784   3.206  -2.021  0.00  0.00    +0.111 A 
ATOM      6  N   LIG    1       -4.113   3.421  -3.337  0.00  0.00    -0.295 N 
ATOM      7  H   LIG    1       -4.616   2.750  -3.824  0.00  0.00    +0.172 HD
ATOM      8  O   LIG    1       -2.067   6.197  -1.425  0.00  0.00    -0.267 OA
ATOM      9  C   LIG    1       -3.737   4.556  -3.956  0.00  0.00    +0.330 A 
ATOM     10  O   LIG    1       -4.034   4.728  -5.123  0.00  0.00    -0.246 OA
ENDROOT
BRANCH   5  11
ATOM     11  N   LIG    1       -4.162   2.047  -1.393  0.00  0.00    -0.316 N 
ATOM     12  C   LIG    1       -5.498   2.183  -0.798  0.00  0.00    +0.109 C 
ATOM     13  C   LIG    1       -5.826   0.928   0.014  0.00  0.00    +0.050 C 
ATOM     14  C   LIG    1       -5.779  -0.295  -0.905  0.00  0.00    +0.118 C 
ATOM     15  C   LIG    1       -4.393  -0.387  -1.550  0.00  0.00    +0.050 C 
ATOM     16  C   LIG    1       -4.107   0.906  -2.317  0.00  0.00    +0.109 C 
BRANCH  14  17
ATOM     17  O   LIG    1       -6.029  -1.476  -0.141  0.00  0.00    -0.392 OA
ATOM     18  H   LIG    1       -6.891  -1.487   0.297  0.00  0.00    +0.210 HD
ENDBRANCH  14  17
ENDBRANCH   5  11
BRANCH   4  19
ATOM     19  C   LIG    1       -2.709   3.951   0.105  0.00  0.00    +0.079 C 
BRANCH  19  20
ATOM     20  C   LIG    1       -1.316   3.383   0.190  0.00  0.00    -0.042 A 
ATOM     21  C   LIG    1       -1.127   2.013   0.178  0.00  0.00    +0.004 A 
ATOM     22  C   LIG    1        0.151   1.492   0.262  0.00  0.00    +0.001 A 
ATOM     23  C   LIG    1        1.240   2.339   0.347  0.00  0.00    +0.012 A 
ATOM     24  C   LIG    1        1.050   3.709   0.353  0.00  0.00    +0.055 A 
ATOM     25  C   LIG    1       -0.228   4.230   0.274  0.00  0.00    +0.016 A 
BRANCH  24  26
ATOM     26  C   LIG    1        2.237   4.633   0.445  0.00  0.00    +0.417 C 
ATOM     27  F   LIG    1        2.124   5.424   1.593  0.00  0.00    -0.166 F 
ATOM     28  F   LIG    1        2.276   5.455  -0.686  0.00  0.00    -0.166 F 
ATOM     29  F   LIG    1        3.413   3.877   0.513  0.00  0.00    -0.166 F 
ENDBRANCH  24  26
ENDBRANCH  19  20
ENDBRANCH   4  19
TORSDOF 5
