REMARK  Name = ZINC07041648
REMARK                            x       y       z     vdW  Elec       q    Type
REMARK                         _______ _______ _______ _____ _____    ______ ____
ROOT
ATOM      1  C   LIG    1        3.042   2.950  -0.422  0.00  0.00    -0.020 C 
ATOM      2  C   LIG    1        2.870   2.643   1.087  0.00  0.00    +0.003 C 
ATOM      3  C   LIG    1        1.500   1.924   1.237  0.00  0.00    +0.004 C 
ATOM      4  C   LIG    1        1.170   1.513  -0.205  0.00  0.00    -0.001 C 
ATOM      5  C   LIG    1       -0.235   1.103  -0.508  0.00  0.00    +0.000 C 
ATOM      6  C   LIG    1       -1.222   1.451   0.613  0.00  0.00    +0.031 C 
ATOM      7  C   LIG    1       -2.570   0.919   0.202  0.00  0.00    -0.027 C 
ATOM      8  C   LIG    1       -2.910   0.719  -1.034  0.00  0.00    -0.065 C 
ATOM      9  C   LIG    1       -2.028   1.018  -2.222  0.00  0.00    -0.008 C 
ATOM     10  C   LIG    1       -2.797   1.937  -3.178  0.00  0.00    +0.016 C 
ATOM     11  C   LIG    1       -1.720  -0.291  -2.937  0.00  0.00    +0.014 C 
ATOM     12  C   LIG    1       -2.573  -1.422  -2.362  0.00  0.00    +0.032 C 
ATOM     13  C   LIG    1       -4.051  -1.055  -2.303  0.00  0.00    +0.119 C 
ATOM     14  C   LIG    1       -4.272   0.117  -1.339  0.00  0.00    +0.062 C 
ATOM     15  C   LIG    1       -0.761   1.754  -1.790  0.00  0.00    +0.003 C 
ATOM     16  C   LIG    1        0.281   1.780  -2.891  0.00  0.00    +0.005 C 
ATOM     17  C   LIG    1        1.593   2.455  -2.478  0.00  0.00    +0.007 C 
ATOM     18  C   LIG    1        1.623   2.754  -1.002  0.00  0.00    -0.028 C 
ATOM     19  C   LIG    1        0.828   4.012  -0.662  0.00  0.00    +0.011 C 
ENDROOT
BRANCH   1  21
ATOM     20  C   LIG    1        4.843   4.612   0.051  0.00  0.00    -0.014 C 
ATOM     21  C   LIG    1        3.488   4.395  -0.626  0.00  0.00    -0.075 C 
BRANCH  21  22
ATOM     22  N   LIG    1        3.587   4.665  -2.072  0.00  0.00    +0.380 N 
ATOM     23  H   LIG    1        2.677   4.482  -2.512  0.00  0.00    -0.090 HD
ATOM     24  H   LIG    1        4.288   4.059  -2.493  0.00  0.00    -0.090 HD
ATOM     25  H   LIG    1        3.842   5.639  -2.228  0.00  0.00    -0.090 HD
ENDBRANCH  21  22
ENDBRANCH   1  21
BRANCH  13  26
ATOM     26  O   LIG    1       -4.519  -0.707  -3.607  0.00  0.00    -0.391 OA
ATOM     27  H   LIG    1       -5.460  -0.487  -3.641  0.00  0.00    +0.210 HD
ENDBRANCH  13  26
TORSDOF 3
