REMARK  Name = ZINC06582254
REMARK                            x       y       z     vdW  Elec       q    Type
REMARK                         _______ _______ _______ _____ _____    ______ ____
ROOT
ATOM      1  C   LIG    1       -0.013   1.086   0.008  0.00  0.00    +0.140 C 
ATOM      2  C   LIG    1       -0.585   1.786  -1.199  0.00  0.00    -0.019 A 
ATOM      3  C   LIG    1       -1.870   1.444  -1.597  0.00  0.00    +0.006 A 
ATOM      4  C   LIG    1       -2.452   2.057  -2.688  0.00  0.00    +0.000 A 
ATOM      5  C   LIG    1       -1.749   3.019  -3.389  0.00  0.00    +0.000 A 
ATOM      6  C   LIG    1       -0.470   3.357  -2.997  0.00  0.00    +0.004 A 
ATOM      7  C   LIG    1        0.119   2.739  -1.901  0.00  0.00    -0.041 A 
ATOM      8  C   LIG    1        1.522   3.151  -1.538  0.00  0.00    +0.054 C 
ATOM      9  C   LIG    1        1.843   2.772  -0.093  0.00  0.00    +0.117 C 
ATOM     10  N   LIG    1        1.421   1.377   0.114  0.00  0.00    -0.256 N 
ATOM     11  C   LIG    1        2.315   0.407   0.390  0.00  0.00    +0.404 C 
ATOM     12  O   LIG    1        1.939  -0.736   0.556  0.00  0.00    -0.226 OA
ENDROOT
BRANCH   1  16
ATOM     13  C   LIG    1       -2.008   2.461   3.526  0.00  0.00    +0.000 A 
ATOM     14  C   LIG    1       -1.413   3.369   2.669  0.00  0.00    +0.000 A 
ATOM     15  C   LIG    1       -0.768   2.923   1.531  0.00  0.00    +0.006 A 
ATOM     16  C   LIG    1       -0.717   1.571   1.249  0.00  0.00    -0.023 A 
ATOM     17  C   LIG    1       -1.316   0.664   2.103  0.00  0.00    +0.006 A 
ATOM     18  C   LIG    1       -1.958   1.109   3.244  0.00  0.00    +0.000 A 
ENDBRANCH   1  16
BRANCH  11  19
ATOM     19  O   LIG    1        3.625   0.706   0.481  0.00  0.00    -0.449 OA
BRANCH  19  20
ATOM     20  C   LIG    1        4.531  -0.389   0.781  0.00  0.00    +0.165 C 
ATOM     21  C   LIG    1        4.707  -0.509   2.298  0.00  0.00    -0.033 C 
ATOM     22  N   LIG    1        6.126  -0.323   2.669  0.00  0.00    +0.382 N 
ATOM     23  H   LIG    1        6.218  -0.408   3.688  0.00  0.00    -0.082 HD
ATOM     24  C   LIG    1        6.586   1.020   2.256  0.00  0.00    -0.078 C 
ATOM     25  C   LIG    1        6.454   1.194   0.723  0.00  0.00    -0.012 C 
ATOM     26  C   LIG    1        6.958  -1.362   2.024  0.00  0.00    -0.078 C 
ATOM     27  C   LIG    1        6.845  -1.266   0.500  0.00  0.00    -0.012 C 
ATOM     28  C   LIG    1        5.899  -0.113   0.144  0.00  0.00    +0.025 C 
ENDBRANCH  19  20
ENDBRANCH  11  19
TORSDOF 3
