REMARK  Name = ZINC06494041
REMARK                            x       y       z     vdW  Elec       q    Type
REMARK                         _______ _______ _______ _____ _____    ______ ____
ROOT
ATOM      1  C   LIG    1       -0.017   1.373   0.010  0.00  0.00    +0.001 A 
ATOM      2  C   LIG    1        1.171   2.090   0.002  0.00  0.00    +0.002 A 
ATOM      3  C   LIG    1        2.385   1.439  -0.013  0.00  0.00    +0.026 A 
ATOM      4  C   LIG    1        2.427   0.048  -0.021  0.00  0.00    +0.053 A 
ATOM      5  C   LIG    1        1.224  -0.677  -0.013  0.00  0.00    +0.046 A 
ATOM      6  C   LIG    1        1.282  -2.151  -0.022  0.00  0.00    +0.204 A 
ATOM      7  O   LIG    1        0.262  -2.820  -0.015  0.00  0.00    -0.286 OA
ATOM      8  C   LIG    1        2.561  -2.765  -0.037  0.00  0.00    +0.124 A 
ATOM      9  C   LIG    1        3.702  -1.973  -0.044  0.00  0.00    +0.205 A 
ATOM     10  N   LIG    1        3.635  -0.621  -0.036  0.00  0.00    -0.325 N 
ATOM     11  H   LIG    1        4.457  -0.107  -0.042  0.00  0.00    +0.169 HD
ATOM     12  C   LIG    1        0.002  -0.004   0.002  0.00  0.00    +0.014 A 
ENDROOT
BRANCH   8  13
ATOM     13  C   LIG    1        2.678  -4.234  -0.046  0.00  0.00    +0.148 A 
ATOM     14  N   LIG    1        3.858  -4.931  -0.055  0.00  0.00    -0.338 N 
ATOM     15  C   LIG    1        3.537  -6.277  -0.060  0.00  0.00    +0.066 A 
ATOM     16  C   LIG    1        4.288  -7.443  -0.071  0.00  0.00    +0.028 A 
ATOM     17  C   LIG    1        3.654  -8.668  -0.074  0.00  0.00    +0.002 A 
ATOM     18  C   LIG    1        2.268  -8.743  -0.068  0.00  0.00    +0.002 A 
ATOM     19  C   LIG    1        1.507  -7.596  -0.058  0.00  0.00    +0.030 A 
ATOM     20  C   LIG    1        2.133  -6.346  -0.054  0.00  0.00    +0.089 A 
ATOM     21  H   LIG    1        4.750  -4.552  -0.058  0.00  0.00    +0.167 HD
ATOM     22  N   LIG    1        1.668  -5.072  -0.040  0.00  0.00    -0.227 NA
ENDBRANCH   8  13
BRANCH   9  23
ATOM     23  O   LIG    1        4.912  -2.568  -0.059  0.00  0.00    -0.493 OA
ATOM     24  H   LIG    1        4.975  -3.503  -0.064  0.00  0.00    +0.294 HD
ENDBRANCH   9  23
TORSDOF 2
