REMARK  Name = ZINC06091650
REMARK                            x       y       z     vdW  Elec       q    Type
REMARK                         _______ _______ _______ _____ _____    ______ ____
ROOT
ATOM      1  C   LIG    1       -0.017   1.373   0.010  0.00  0.00    +0.008 A 
ATOM      2  C   LIG    1        1.054   2.260   0.004  0.00  0.00    +0.049 A 
ATOM      3  C   LIG    1        2.410   1.986  -0.010  0.00  0.00    +0.162 A 
ATOM      4  C   LIG    1        3.054   0.737  -0.023  0.00  0.00    +0.204 A 
ATOM      5  C   LIG    1        2.484  -0.525  -0.025  0.00  0.00    +0.210 A 
ATOM      6  C   LIG    1        1.111  -0.865  -0.014  0.00  0.00    +0.224 A 
ATOM      7  O   LIG    1        0.858  -2.063  -0.018  0.00  0.00    -0.284 OA
ATOM      8  C   LIG    1        0.002  -0.004   0.002  0.00  0.00    +0.055 A 
ENDROOT
BRANCH   3   9
ATOM      9  O   LIG    1        3.228   3.068  -0.013  0.00  0.00    -0.503 OA
ATOM     10  H   LIG    1        4.170   2.849  -0.023  0.00  0.00    +0.292 HD
ENDBRANCH   3   9
BRANCH   4  11
ATOM     11  O   LIG    1        4.411   0.772  -0.036  0.00  0.00    -0.501 OA
ATOM     12  H   LIG    1        4.858   1.595  -0.036  0.00  0.00    +0.292 HD
ENDBRANCH   4  11
BRANCH   5  13
ATOM     13  O   LIG    1        3.352  -1.567  -0.039  0.00  0.00    -0.501 OA
ATOM     14  H   LIG    1        4.275  -1.408  -0.047  0.00  0.00    +0.292 HD
ENDBRANCH   5  13
TORSDOF 3
