REMARK  Name = ZINC05928535
REMARK                            x       y       z     vdW  Elec       q    Type
REMARK                         _______ _______ _______ _____ _____    ______ ____
ROOT
ATOM      1  C   LIG    1        3.416   3.413   0.701  0.00  0.00    +0.255 C 
ATOM      2  N   LIG    1        2.743   3.107  -0.426  0.00  0.00    -0.234 N 
ATOM      3  C   LIG    1        1.526   2.423  -0.326  0.00  0.00    +0.055 A 
ATOM      4  C   LIG    1        1.355   1.435   0.631  0.00  0.00    +0.025 A 
ATOM      5  C   LIG    1        0.150   0.762   0.723  0.00  0.00    +0.002 A 
ATOM      6  C   LIG    1       -0.888   1.062  -0.139  0.00  0.00    +0.001 A 
ATOM      7  C   LIG    1       -0.731   2.052  -1.095  0.00  0.00    +0.017 A 
ATOM      8  C   LIG    1        0.471   2.728  -1.190  0.00  0.00    +0.035 A 
ATOM      9  S   LIG    1        0.704   3.990  -2.403  0.00  0.00    -0.086 S 
ATOM     10  C   LIG    1        2.444   3.918  -2.693  0.00  0.00    +0.035 A 
ATOM     11  C   LIG    1        2.973   4.287  -3.916  0.00  0.00    +0.017 A 
ATOM     12  C   LIG    1        4.341   4.223  -4.120  0.00  0.00    +0.001 A 
ATOM     13  C   LIG    1        5.172   3.790  -3.104  0.00  0.00    +0.002 A 
ATOM     14  C   LIG    1        4.648   3.420  -1.878  0.00  0.00    +0.025 A 
ATOM     15  C   LIG    1        3.280   3.481  -1.663  0.00  0.00    +0.055 A 
ATOM     16  O   LIG    1        2.947   3.129   1.786  0.00  0.00    -0.269 OA
ENDROOT
BRANCH   1  21
ATOM     17  C   LIG    1        8.514   6.061   0.374  0.00  0.00    +0.044 C 
ATOM     18  C   LIG    1        7.179   5.368   0.460  0.00  0.00    -0.050 A 
ATOM     19  C   LIG    1        7.059   4.190   1.176  0.00  0.00    +0.004 A 
ATOM     20  C   LIG    1        5.840   3.550   1.258  0.00  0.00    +0.013 A 
ATOM     21  C   LIG    1        4.726   4.093   0.617  0.00  0.00    +0.038 A 
ATOM     22  C   LIG    1        4.854   5.279  -0.109  0.00  0.00    +0.013 A 
ATOM     23  C   LIG    1        6.078   5.912  -0.178  0.00  0.00    +0.004 A 
ENDBRANCH   1  21
TORSDOF 1
