REMARK  Name = ZINC06188073
REMARK                            x       y       z     vdW  Elec       q    Type
REMARK                         _______ _______ _______ _____ _____    ______ ____
ROOT
ATOM      1  C   LIG    1        4.363  -0.296  -0.041  0.00  0.00    +0.155 C 
ATOM      2  N   LIG    1        3.463   0.860  -0.027  0.00  0.00    -0.281 N 
ATOM      3  C   LIG    1        2.102   0.661  -0.015  0.00  0.00    +0.148 A 
ATOM      4  C   LIG    1        1.256   1.766  -0.000  0.00  0.00    +0.171 A 
ATOM      5  N   LIG    1       -0.016   1.307   0.009  0.00  0.00    -0.221 NA
ATOM      6  C   LIG    1        0.002  -0.004   0.002  0.00  0.00    +0.143 A 
ATOM      7  C   LIG    1        1.858   3.101   0.000  0.00  0.00    +0.284 A 
ATOM      8  N   LIG    1        3.205   3.201  -0.012  0.00  0.00    -0.262 N 
ATOM      9  C   LIG    1        3.832   4.525  -0.011  0.00  0.00    +0.157 C 
ATOM     10  O   LIG    1        1.160   4.099   0.011  0.00  0.00    -0.265 OA
ATOM     11  N   LIG    1        1.304  -0.439  -0.013  0.00  0.00    -0.324 N 
ATOM     12  H   LIG    1        1.609  -1.391  -0.021  0.00  0.00    +0.169 HD
ATOM     13  C   LIG    1        3.978   2.102  -0.025  0.00  0.00    +0.333 A 
ATOM     14  O   LIG    1        5.187   2.236  -0.037  0.00  0.00    -0.246 OA
ENDROOT
BRANCH   6  15
ATOM     15  C   LIG    1       -1.192  -0.876   0.008  0.00  0.00    +0.052 A 
ATOM     16  C   LIG    1       -2.470  -0.316   0.024  0.00  0.00    +0.014 A 
ATOM     17  C   LIG    1       -3.579  -1.135   0.029  0.00  0.00    +0.001 A 
ATOM     18  C   LIG    1       -3.429  -2.510   0.019  0.00  0.00    +0.003 A 
ATOM     19  C   LIG    1       -2.167  -3.075   0.004  0.00  0.00    +0.039 A 
ATOM     20  C   LIG    1       -1.046  -2.266  -0.007  0.00  0.00    +0.134 A 
ATOM     21  F   LIG    1        0.187  -2.818  -0.027  0.00  0.00    -0.205 F 
ENDBRANCH   6  15
TORSDOF 1
