REMARK  Name = ZINC06473379
REMARK                            x       y       z     vdW  Elec       q    Type
REMARK                         _______ _______ _______ _____ _____    ______ ____
ROOT
ATOM      1  C   LIG    1        0.049   1.398   0.636  0.00  0.00    +0.034 A 
ATOM      2  C   LIG    1        1.194   2.113   0.360  0.00  0.00    +0.031 A 
ATOM      3  C   LIG    1        2.405   1.442   0.157  0.00  0.00    +0.077 A 
ATOM      4  C   LIG    1        2.423   0.035   0.239  0.00  0.00    +0.035 A 
ATOM      5  C   LIG    1        3.827  -0.359  -0.021  0.00  0.00    +0.152 C 
ATOM      6  C   LIG    1        4.526   0.921  -0.241  0.00  0.00    +0.241 C 
ATOM      7  N   LIG    1        4.333  -1.571  -0.049  0.00  0.00    -0.175 NA
ATOM      8  C   LIG    1        1.261  -0.669   0.518  0.00  0.00    +0.045 A 
ATOM      9  N   LIG    1        3.656   1.890  -0.124  0.00  0.00    -0.211 NA
ATOM     10  C   LIG    1        0.077   0.015   0.715  0.00  0.00    +0.122 A 
ENDROOT
BRANCH   6  11
ATOM     11  O   LIG    1        5.845   1.067  -0.516  0.00  0.00    -0.491 OA
ATOM     12  H   LIG    1        6.396   0.312  -0.582  0.00  0.00    +0.294 HD
ENDBRANCH   6  11
BRANCH   7  13
ATOM     13  N   LIG    1        3.557  -2.596   0.050  0.00  0.00    -0.218 N 
ATOM     14  H   LIG    1        2.594  -2.477   0.060  0.00  0.00    +0.176 HD
BRANCH  13  15
ATOM     15  C   LIG    1        4.083  -3.834   0.140  0.00  0.00    +0.147 C 
ATOM     16  S   LIG    1        3.053  -5.195   0.271  0.00  0.00    -0.017 S 
BRANCH  15  17
ATOM     17  N   LIG    1        5.421  -4.000   0.125  0.00  0.00    -0.339 N 
ATOM     18  H   LIG    1        5.800  -4.890   0.190  0.00  0.00    +0.144 HD
ATOM     19  H   LIG    1        6.004  -3.228   0.051  0.00  0.00    +0.144 HD
ENDBRANCH  15  17
ENDBRANCH  13  15
ENDBRANCH   7  13
BRANCH  10  20
ATOM     20  N   LIG    1       -1.166  -0.732   1.013  0.00  0.00    +0.006 N 
ATOM     21  O   LIG    1       -2.203  -0.136   1.186  0.00  0.00    -0.130 OA
BRANCH  20  22
ATOM     22  O   LIG    1       -1.144  -1.939   1.083  0.00  0.00    -0.396 OA
ATOM     23  H   LIG    1       -0.340  -2.401   0.948  0.00  0.00    +0.329 HD
ENDBRANCH  20  22
ENDBRANCH  10  20
TORSDOF 6
