REMARK  Name = ZINC06812943
REMARK                            x       y       z     vdW  Elec       q    Type
REMARK                         _______ _______ _______ _____ _____    ______ ____
ROOT
ATOM      1  C   LIG    1        2.626   4.209  -1.349  0.00  0.00    +0.071 C 
ATOM      2  C   LIG    1        2.801   5.528  -1.103  0.00  0.00    +0.188 C 
ATOM      3  C   LIG    1        2.248   5.851   0.230  0.00  0.00    +0.282 C 
ATOM      4  N   LIG    1        1.739   4.741   0.797  0.00  0.00    -0.284 N 
ATOM      5  O   LIG    1        2.253   6.954   0.738  0.00  0.00    -0.267 OA
ATOM      6  C   LIG    1        1.931   3.628  -0.139  0.00  0.00    +0.144 C 
ENDROOT
BRANCH   6   7
ATOM      7  C   LIG    1        0.598   3.048  -0.536  0.00  0.00    -0.022 A 
ATOM      8  C   LIG    1        0.449   1.679  -0.659  0.00  0.00    +0.006 A 
ATOM      9  C   LIG    1       -0.774   1.147  -1.023  0.00  0.00    +0.004 A 
ATOM     10  C   LIG    1       -1.846   1.984  -1.270  0.00  0.00    -0.045 A 
ATOM     11  C   LIG    1       -1.698   3.353  -1.141  0.00  0.00    +0.004 A 
ATOM     12  C   LIG    1       -0.476   3.885  -0.777  0.00  0.00    +0.006 A 
BRANCH  10  13
ATOM     13  C   LIG    1       -3.178   1.405  -1.673  0.00  0.00    +0.013 C 
ATOM     14  C   LIG    1       -3.574   1.945  -3.048  0.00  0.00    +0.012 C 
ATOM     15  C   LIG    1       -4.239   1.801  -0.644  0.00  0.00    +0.012 C 
ENDBRANCH  10  13
ENDBRANCH   6   7
BRANCH   1  16
ATOM     16  C   LIG    1        3.030   3.483  -2.557  0.00  0.00    +0.195 C 
ATOM     17  O   LIG    1        2.523   3.756  -3.629  0.00  0.00    -0.287 OA
BRANCH  16  22
ATOM     18  C   LIG    1        7.022  -0.650  -2.230  0.00  0.00    +0.044 C 
ATOM     19  C   LIG    1        5.976   0.433  -2.316  0.00  0.00    -0.050 A 
ATOM     20  C   LIG    1        5.317   0.660  -3.511  0.00  0.00    +0.004 A 
ATOM     21  C   LIG    1        4.359   1.649  -3.596  0.00  0.00    +0.012 A 
ATOM     22  C   LIG    1        4.056   2.421  -2.473  0.00  0.00    +0.022 A 
ATOM     23  C   LIG    1        4.729   2.190  -1.271  0.00  0.00    +0.012 A 
ATOM     24  C   LIG    1        5.681   1.194  -1.199  0.00  0.00    +0.004 A 
ENDBRANCH  16  22
ENDBRANCH   1  16
BRANCH   2  25
ATOM     25  O   LIG    1        3.388   6.411  -1.943  0.00  0.00    -0.502 OA
ATOM     26  H   LIG    1        3.713   6.123  -2.773  0.00  0.00    +0.292 HD
ENDBRANCH   2  25
BRANCH   4  27
ATOM     27  C   LIG    1        1.104   4.658   2.115  0.00  0.00    +0.111 C 
BRANCH  27  28
ATOM     28  C   LIG    1        2.164   4.347   3.174  0.00  0.00    +0.047 C 
BRANCH  28  29
ATOM     29  C   LIG    1        1.501   4.261   4.550  0.00  0.00    +0.161 C 
BRANCH  29  30
ATOM     30  O   LIG    1        2.491   3.969   5.538  0.00  0.00    -0.383 OA
ATOM     31  C   LIG    1        1.974   3.867   6.866  0.00  0.00    +0.193 C 
ENDBRANCH  29  30
ENDBRANCH  28  29
ENDBRANCH  27  28
ENDBRANCH   4  27
TORSDOF 9
