REMARK  Name = ZINC06649233
REMARK                            x       y       z     vdW  Elec       q    Type
REMARK                         _______ _______ _______ _____ _____    ______ ____
ROOT
ATOM      1  N   LIG    1        4.152  -0.952   1.338  0.00  0.00    -0.351 N 
ATOM      2  H   LIG    1        4.378  -0.206   1.915  0.00  0.00    +0.163 HD
ATOM      3  C   LIG    1        4.239  -2.172   1.786  0.00  0.00    +0.211 C 
ENDROOT
BRANCH   3   4
ATOM      4  C   LIG    1        4.682  -2.419   3.169  0.00  0.00    +0.100 A 
ATOM      5  C   LIG    1        5.020  -1.461   4.069  0.00  0.00    +0.041 A 
ATOM      6  C   LIG    1        5.387  -2.111   5.274  0.00  0.00    +0.000 A 
ATOM      7  C   LIG    1        5.817  -1.649   6.524  0.00  0.00    +0.010 A 
ATOM      8  C   LIG    1        6.104  -2.541   7.516  0.00  0.00    +0.001 A 
ATOM      9  C   LIG    1        5.973  -3.907   7.298  0.00  0.00    +0.002 A 
ATOM     10  C   LIG    1        5.552  -4.385   6.078  0.00  0.00    +0.026 A 
ATOM     11  C   LIG    1        5.253  -3.494   5.051  0.00  0.00    +0.047 A 
ATOM     12  N   LIG    1        4.815  -3.661   3.757  0.00  0.00    -0.351 N 
ATOM     13  H   LIG    1        4.631  -4.511   3.328  0.00  0.00    +0.166 HD
ENDBRANCH   3   4
BRANCH   3  14
ATOM     14  O   LIG    1        3.923  -3.213   0.981  0.00  0.00    -0.492 OA
ATOM     15  H   LIG    1        4.019  -4.079   1.402  0.00  0.00    +0.294 HD
ENDBRANCH   3  14
BRANCH   1  16
ATOM     16  C   LIG    1        3.711  -0.707  -0.038  0.00  0.00    +0.151 C 
BRANCH  16  20
ATOM     17  C   LIG    1       -0.017   1.378   0.010  0.00  0.00    +0.000 A 
ATOM     18  C   LIG    1        1.171   2.086   0.002  0.00  0.00    +0.000 A 
ATOM     19  C   LIG    1        2.377   1.411  -0.013  0.00  0.00    +0.005 A 
ATOM     20  C   LIG    1        2.396   0.029  -0.020  0.00  0.00    -0.028 A 
ATOM     21  C   LIG    1        1.208  -0.679  -0.012  0.00  0.00    +0.005 A 
ATOM     22  C   LIG    1        0.002  -0.004   0.002  0.00  0.00    +0.000 A 
ENDBRANCH  16  20
ENDBRANCH   1  16
TORSDOF 4
