REMARK  Name = ZINC06361554
REMARK                            x       y       z     vdW  Elec       q    Type
REMARK                         _______ _______ _______ _____ _____    ______ ____
ROOT
ATOM      1  C   LIG    1       -2.147   0.964  -1.287  0.00  0.00    -0.074 C 
ATOM      2  N   LIG    1       -2.860   1.440  -2.487  0.00  0.00    +0.381 N 
ATOM      3  H   LIG    1       -3.806   1.041  -2.500  0.00  0.00    -0.086 HD
ATOM      4  H   LIG    1       -2.921   2.465  -2.460  0.00  0.00    -0.086 HD
ATOM      5  C   LIG    1       -2.143   1.029  -3.709  0.00  0.00    -0.048 C 
ATOM      6  C   LIG    1       -0.749   1.659  -3.726  0.00  0.00    +0.126 C 
ATOM      7  C   LIG    1        0.029   1.201  -2.489  0.00  0.00    +0.145 C 
ATOM      8  C   LIG    1       -0.753   1.593  -1.232  0.00  0.00    +0.028 C 
ENDROOT
BRANCH   6   9
ATOM      9  O   LIG    1       -0.869   3.083  -3.714  0.00  0.00    -0.391 OA
ATOM     10  H   LIG    1       -1.353   3.443  -4.469  0.00  0.00    +0.210 HD
ENDBRANCH   6   9
BRANCH   7  11
ATOM     11  O   LIG    1        1.311   1.831  -2.470  0.00  0.00    -0.389 OA
ATOM     12  H   LIG    1        1.861   1.627  -3.239  0.00  0.00    +0.210 HD
ENDBRANCH   7  11
BRANCH   8  13
ATOM     13  C   LIG    1       -0.013   1.086   0.008  0.00  0.00    +0.160 C 
BRANCH  13  14
ATOM     14  O   LIG    1       -0.682   1.547   1.184  0.00  0.00    -0.395 OA
ATOM     15  H   LIG    1       -0.266   1.262   2.009  0.00  0.00    +0.209 HD
ENDBRANCH  13  14
ENDBRANCH   8  13
TORSDOF 4
