REMARK  Name = ZINC05992377
REMARK                            x       y       z     vdW  Elec       q    Type
REMARK                         _______ _______ _______ _____ _____    ______ ____
ROOT
ATOM      1  C   LIG    1       -0.017   1.375   0.010  0.00  0.00    +0.001 A 
ATOM      2  C   LIG    1        1.170   2.086   0.002  0.00  0.00    +0.005 A 
ATOM      3  C   LIG    1        2.382   1.420  -0.013  0.00  0.00    -0.025 A 
ATOM      4  C   LIG    1        2.414   0.040  -0.021  0.00  0.00    +0.021 A 
ATOM      5  C   LIG    1        1.221  -0.682  -0.013  0.00  0.00    +0.066 A 
ATOM      6  C   LIG    1        0.002  -0.004   0.002  0.00  0.00    +0.016 A 
ENDROOT
BRANCH   5   7
ATOM      7  C   LIG    1        1.248  -2.163  -0.022  0.00  0.00    +0.306 C 
ATOM      8  N   LIG    1        2.231  -2.793  -0.599  0.00  0.00    -0.285 N 
ATOM      9  H   LIG    1        2.945  -2.292  -1.023  0.00  0.00    +0.301 HD
ATOM     10  H   LIG    1        2.248  -3.763  -0.605  0.00  0.00    +0.301 HD
BRANCH   7  11
ATOM     11  N   LIG    1        0.233  -2.874   0.581  0.00  0.00    -0.132 N 
ATOM     12  H   LIG    1       -0.499  -2.405   1.010  0.00  0.00    +0.348 HD
BRANCH  11  13
ATOM     13  O   LIG    1        0.259  -4.290   0.572  0.00  0.00    -0.209 OA
ATOM     14  H   LIG    1       -0.494  -4.699   1.019  0.00  0.00    +0.271 HD
ENDBRANCH  11  13
ENDBRANCH   7  11
ENDBRANCH   5   7
BRANCH   3  15
ATOM     15  C   LIG    1        3.671   2.201  -0.022  0.00  0.00    +0.207 C 
BRANCH  15  16
ATOM     16  S   LIG    1        4.204   2.506   1.685  0.00  0.00    +0.001 S 
ATOM     17  O   LIG    1        4.583   1.285   2.305  0.00  0.00    -0.169 OA
ATOM     18  O   LIG    1        3.302   3.396   2.328  0.00  0.00    -0.169 OA
BRANCH  16  19
ATOM     19  C   LIG    1        5.704   3.418   1.534  0.00  0.00    +0.089 A 
ATOM     20  C   LIG    1        6.913   2.752   1.458  0.00  0.00    +0.028 A 
ATOM     21  C   LIG    1        8.090   3.467   1.340  0.00  0.00    +0.022 A 
ATOM     22  C   LIG    1        8.058   4.849   1.298  0.00  0.00    +0.041 A 
ATOM     23 CL   LIG    1        9.537   5.748   1.150  0.00  0.00    -0.084 Cl
ATOM     24  C   LIG    1        6.848   5.516   1.374  0.00  0.00    +0.022 A 
ATOM     25  C   LIG    1        5.671   4.800   1.486  0.00  0.00    +0.028 A 
ENDBRANCH  16  19
ENDBRANCH  15  16
ENDBRANCH   3  15
TORSDOF 6
