REMARK  Name = ZINC08202971
REMARK                            x       y       z     vdW  Elec       q    Type
REMARK                         _______ _______ _______ _____ _____    ______ ____
ROOT
ATOM      1  N   LIG    1        6.216  -2.014   0.247  0.00  0.00    -0.249 N 
ATOM      2  C   LIG    1        5.663  -0.787   0.160  0.00  0.00    +0.257 C 
ATOM      3  C   LIG    1        4.196  -0.690   0.063  0.00  0.00    +0.100 C 
ATOM      4  C   LIG    1        3.438  -1.953   0.073  0.00  0.00    +0.257 C 
ATOM      5  N   LIG    1        4.127  -3.109   0.158  0.00  0.00    -0.249 N 
ATOM      6  O   LIG    1        2.223  -1.953   0.002  0.00  0.00    -0.269 OA
ATOM      7  C   LIG    1        3.556   0.539  -0.029  0.00  0.00    +0.028 C 
ATOM      8  O   LIG    1        6.357   0.213   0.163  0.00  0.00    -0.269 OA
ATOM      9  C   LIG    1        5.464  -3.123   0.245  0.00  0.00    +0.149 C 
ATOM     10  S   LIG    1        6.253  -4.638   0.358  0.00  0.00    -0.018 S 
ENDROOT
BRANCH   7  11
ATOM     11  C   LIG    1        2.176   0.595  -0.314  0.00  0.00    +0.001 A 
ATOM     12  C   LIG    1        1.496  -0.127  -1.279  0.00  0.00    +0.091 A 
ATOM     13  N   LIG    1        0.191   0.200  -1.249  0.00  0.00    -0.360 N 
ATOM     14  C   LIG    1       -0.055   1.145  -0.273  0.00  0.00    +0.047 A 
ATOM     15  C   LIG    1       -1.212   1.790   0.152  0.00  0.00    +0.026 A 
ATOM     16  C   LIG    1       -1.149   2.714   1.174  0.00  0.00    +0.002 A 
ATOM     17  C   LIG    1        0.058   3.001   1.793  0.00  0.00    +0.001 A 
ATOM     18  C   LIG    1        1.214   2.368   1.389  0.00  0.00    +0.010 A 
ATOM     19  H   LIG    1       -0.512  -0.277  -1.948  0.00  0.00    +0.165 HD
ATOM     20  C   LIG    1        1.165   1.438   0.356  0.00  0.00    +0.007 A 
ENDBRANCH   7  11
BRANCH   1  22
ATOM     21  C   LIG    1        8.088  -2.120   1.817  0.00  0.00    +0.025 C 
ATOM     22  C   LIG    1        7.673  -2.137   0.345  0.00  0.00    +0.112 C 
ENDBRANCH   1  22
BRANCH   5  23
ATOM     23  C   LIG    1        3.396  -4.379   0.164  0.00  0.00    +0.112 C 
ATOM     24  C   LIG    1        3.049  -4.762   1.604  0.00  0.00    +0.025 C 
ENDBRANCH   5  23
TORSDOF 3
