REMARK  Name = ZINC06091650
REMARK                            x       y       z     vdW  Elec       q    Type
REMARK                         _______ _______ _______ _____ _____    ______ ____
ROOT
ATOM      1  C   LIG    1       -0.017   1.387   0.010  0.00  0.00    +0.007 A 
ATOM      2  C   LIG    1        1.042   2.269   0.004  0.00  0.00    +0.049 A 
ATOM      3  C   LIG    1        2.411   1.996  -0.011  0.00  0.00    +0.162 A 
ATOM      4  C   LIG    1        3.049   0.760  -0.024  0.00  0.00    +0.210 A 
ATOM      5  C   LIG    1        2.465  -0.521  -0.025  0.00  0.00    +0.265 A 
ATOM      6  O   LIG    1        3.245  -1.465  -0.039  0.00  0.00    -0.280 OA
ATOM      7  C   LIG    1        1.091  -0.854  -0.014  0.00  0.00    +0.167 A 
ATOM      8  C   LIG    1        0.002  -0.004   0.002  0.00  0.00    +0.049 A 
ENDROOT
BRANCH   3   9
ATOM      9  O   LIG    1        3.227   3.079  -0.013  0.00  0.00    -0.503 OA
ATOM     10  H   LIG    1        2.758   3.925  -0.004  0.00  0.00    +0.292 HD
ENDBRANCH   3   9
BRANCH   4  11
ATOM     11  O   LIG    1        4.405   0.793  -0.037  0.00  0.00    -0.501 OA
ATOM     12  H   LIG    1        4.820  -0.081  -0.046  0.00  0.00    +0.292 HD
ENDBRANCH   4  11
BRANCH   7  13
ATOM     13  O   LIG    1        0.805  -2.180  -0.019  0.00  0.00    -0.503 OA
ATOM     14  H   LIG    1        1.500  -2.809  -0.030  0.00  0.00    +0.292 HD
ENDBRANCH   7  13
TORSDOF 3
