REMARK  Name = ZINC08214635
REMARK                            x       y       z     vdW  Elec       q    Type
REMARK                         _______ _______ _______ _____ _____    ______ ____
ROOT
ATOM      1  C   LIG    1        3.806 -10.187   6.158  0.00  0.00    +0.180 C 
ENDROOT
BRANCH   1   2
ATOM      2  C   LIG    1        4.651 -10.693   7.329  0.00  0.00    +0.090 C 
BRANCH   2   3
ATOM      3  C   LIG    1        4.775 -12.215   7.248  0.00  0.00    +0.194 C 
ATOM      4  C   LIG    1        5.689 -12.811   8.328  0.00  0.00    +0.138 C 
ATOM      5  C   LIG    1        4.349 -12.837   9.027  0.00  0.00    +0.314 C 
ATOM      6  O   LIG    1        4.009 -12.805  10.186  0.00  0.00    -0.250 OA
ATOM      7  O   LIG    1        3.678 -12.910   7.858  0.00  0.00    -0.460 OA
BRANCH   4   8
ATOM      8  C   LIG    1        6.271 -14.185   7.994  0.00  0.00    +0.018 C 
BRANCH   8   9
ATOM      9  C   LIG    1        7.254 -14.603   9.090  0.00  0.00    +0.001 C 
BRANCH   9  10
ATOM     10  C   LIG    1        7.837 -15.977   8.756  0.00  0.00    +0.000 C 
BRANCH  10  11
ATOM     11  C   LIG    1        8.819 -16.395   9.852  0.00  0.00    -0.000 C 
BRANCH  11  12
ATOM     12  C   LIG    1        9.402 -17.769   9.518  0.00  0.00    -0.003 C 
ATOM     13  C   LIG    1       10.385 -18.187  10.614  0.00  0.00    +0.004 C 
ENDBRANCH  11  12
ENDBRANCH  10  11
ENDBRANCH   9  10
ENDBRANCH   8   9
ENDBRANCH   4   8
ENDBRANCH   2   3
ENDBRANCH   1   2
BRANCH   1  14
ATOM     14  O   LIG    1        2.471 -10.683   6.285  0.00  0.00    -0.460 OA
BRANCH  14  15
ATOM     15  C   LIG    1        2.201 -11.863   5.706  0.00  0.00    +0.328 C 
ATOM     16  O   LIG    1        3.069 -12.456   5.110  0.00  0.00    -0.249 OA
BRANCH  15  17
ATOM     17  C   LIG    1        0.816 -12.448   5.798  0.00  0.00    +0.182 C 
BRANCH  17  18
ATOM     18  N   LIG    1        0.633 -13.441   4.737  0.00  0.00    -0.305 N 
ATOM     19  H   LIG    1       -0.067 -13.323   4.077  0.00  0.00    +0.149 HD
ATOM     20  C   LIG    1        1.439 -14.520   4.677  0.00  0.00    +0.326 C 
ATOM     21  O   LIG    1        2.316 -14.668   5.503  0.00  0.00    -0.280 OA
ENDBRANCH  17  18
BRANCH  17  22
ATOM     22  C   LIG    1        0.636 -13.120   7.161  0.00  0.00    +0.036 C 
BRANCH  22  23
ATOM     23  C   LIG    1       -0.808 -13.604   7.304  0.00  0.00    -0.015 C 
ATOM     24  C   LIG    1       -1.752 -12.400   7.318  0.00  0.00    +0.007 C 
ATOM     25  C   LIG    1       -0.957 -14.384   8.612  0.00  0.00    +0.007 C 
ENDBRANCH  22  23
ENDBRANCH  17  22
ENDBRANCH  15  17
ENDBRANCH  14  15
ENDBRANCH   1  14
BRANCH   1  26
ATOM     26  C   LIG    1        3.785  -8.658   6.166  0.00  0.00    +0.045 C 
BRANCH  26  27
ATOM     27  C   LIG    1        3.045  -8.151   4.926  0.00  0.00    +0.004 C 
BRANCH  27  28
ATOM     28  C   LIG    1        3.024  -6.621   4.935  0.00  0.00    +0.000 C 
BRANCH  28  29
ATOM     29  C   LIG    1        2.284  -6.114   3.695  0.00  0.00    +0.000 C 
BRANCH  29  30
ATOM     30  C   LIG    1        2.264  -4.584   3.704  0.00  0.00    +0.000 C 
BRANCH  30  31
ATOM     31  C   LIG    1        1.524  -4.077   2.464  0.00  0.00    -0.000 C 
BRANCH  31  32
ATOM     32  C   LIG    1        1.503  -2.548   2.473  0.00  0.00    -0.000 C 
BRANCH  32  33
ATOM     33  C   LIG    1        0.763  -2.041   1.233  0.00  0.00    -0.000 C 
BRANCH  33  34
ATOM     34  C   LIG    1        0.742  -0.511   1.242  0.00  0.00    -0.000 C 
BRANCH  34  36
ATOM     35  C   LIG    1       -0.019   1.526   0.010  0.00  0.00    +0.004 C 
ATOM     36  C   LIG    1        0.002  -0.004   0.002  0.00  0.00    -0.003 C 
ENDBRANCH  34  36
ENDBRANCH  33  34
ENDBRANCH  32  33
ENDBRANCH  31  32
ENDBRANCH  30  31
ENDBRANCH  29  30
ENDBRANCH  28  29
ENDBRANCH  27  28
ENDBRANCH  26  27
ENDBRANCH   1  26
TORSDOF 23
