REMARK  Name = ZINC08183774
REMARK                            x       y       z     vdW  Elec       q    Type
REMARK                         _______ _______ _______ _____ _____    ______ ____
ROOT
ATOM      1  C   LIG    1       -0.667  -0.705   0.939  0.00  0.00    +0.233 C 
ATOM      2  N   LIG    1       -0.058  -0.001  -0.036  0.00  0.00    -0.300 N 
ATOM      3  C   LIG    1       -0.134   1.466  -0.059  0.00  0.00    +0.108 C 
ATOM      4  C   LIG    1        1.288   2.032  -0.132  0.00  0.00    +0.023 C 
ATOM      5  C   LIG    1        2.016   1.422  -1.331  0.00  0.00    -0.004 C 
ATOM      6  C   LIG    1        2.109  -0.096  -1.155  0.00  0.00    +0.023 C 
ATOM      7  C   LIG    1        0.697  -0.686  -1.094  0.00  0.00    +0.108 C 
ATOM      8  O   LIG    1       -0.665  -1.917   0.903  0.00  0.00    -0.274 OA
ENDROOT
BRANCH   1  10
ATOM      9  C   LIG    1       -2.702  -0.649   2.355  0.00  0.00    +0.034 C 
ATOM     10  C   LIG    1       -1.352   0.014   2.072  0.00  0.00    +0.163 C 
ATOM     11 CL   LIG    1       -0.320  -0.069   3.548  0.00  0.00    -0.112 Cl
ENDBRANCH   1  10
BRANCH   5  12
ATOM     12  C   LIG    1        3.424   2.011  -1.427  0.00  0.00    +0.038 C 
BRANCH  12  13
ATOM     13  C   LIG    1        3.333   3.486  -1.722  0.00  0.00    -0.047 A 
ATOM     14  C   LIG    1        3.315   3.928  -3.032  0.00  0.00    +0.003 A 
ATOM     15  C   LIG    1        3.227   5.281  -3.304  0.00  0.00    +0.000 A 
ATOM     16  C   LIG    1        3.165   6.192  -2.265  0.00  0.00    +0.000 A 
ATOM     17  C   LIG    1        3.188   5.750  -0.956  0.00  0.00    +0.000 A 
ATOM     18  C   LIG    1        3.272   4.397  -0.684  0.00  0.00    +0.003 A 
ENDBRANCH  12  13
ENDBRANCH   5  12
TORSDOF 3
