REMARK  Name = ZINC06448351
REMARK                            x       y       z     vdW  Elec       q    Type
REMARK                         _______ _______ _______ _____ _____    ______ ____
ROOT
ATOM      1  C   LIG    1       -1.158   2.272   0.019  0.00  0.00    +0.130 A 
ATOM      2  N   LIG    1       -0.684   3.504   0.025  0.00  0.00    -0.128 NA
ATOM      3  N   LIG    1        0.600   3.457   0.011  0.00  0.00    -0.067 NA
ATOM      4  N   LIG    1        1.025   2.244   0.002  0.00  0.00    -0.247 N 
ATOM      5  H   LIG    1        1.984   1.963  -0.010  0.00  0.00    +0.191 HD
ATOM      6  C   LIG    1       -0.017   1.428   0.010  0.00  0.00    +0.163 A 
ENDROOT
BRANCH   1  13
ATOM      7  C   LIG    1       -2.981   0.721  -0.680  0.00  0.00    +0.011 A 
ATOM      8  C   LIG    1       -4.306   0.337  -0.670  0.00  0.00    +0.016 A 
ATOM      9  C   LIG    1       -5.240   1.084   0.027  0.00  0.00    +0.018 A 
ATOM     10 BR   LIG    1       -7.056   0.556   0.030  0.00  0.00    -0.050 Br
ATOM     11  C   LIG    1       -4.850   2.216   0.721  0.00  0.00    +0.016 A 
ATOM     12  C   LIG    1       -3.527   2.607   0.721  0.00  0.00    +0.011 A 
ATOM     13  C   LIG    1       -2.582   1.858   0.022  0.00  0.00    +0.005 A 
ENDBRANCH   1  13
BRANCH   6  14
ATOM     14  C   LIG    1        0.002  -0.004   0.002  0.00  0.00    +0.121 C 
ATOM     15  N   LIG    1        0.018  -1.140  -0.004  0.00  0.00    -0.189 NA
ENDBRANCH   6  14
TORSDOF 2
