REMARK  Name = ZINC06859831
REMARK                            x       y       z     vdW  Elec       q    Type
REMARK                         _______ _______ _______ _____ _____    ______ ____
ROOT
ATOM      1  C   LIG    1        3.639  -0.373  -0.035  0.00  0.00    +0.249 A 
ATOM      2  C   LIG    1        2.315   0.037  -0.020  0.00  0.00    +0.204 A 
ATOM      3  N   LIG    1        1.158  -0.646  -0.013  0.00  0.00    -0.209 NA
ATOM      4  C   LIG    1        0.002  -0.004   0.002  0.00  0.00    +0.137 A 
ATOM      5  C   LIG    1       -0.017   1.394   0.010  0.00  0.00    +0.077 A 
ATOM      6  C   LIG    1        1.163   2.146   0.003  0.00  0.00    +0.087 A 
ATOM      7  C   LIG    1        1.000   3.532   0.011  0.00  0.00    +0.036 A 
ATOM      8  C   LIG    1       -0.240   4.072   0.024  0.00  0.00    +0.048 A 
ATOM      9  S   LIG    1       -1.291   2.629   0.021  0.00  0.00    -0.092 S 
ATOM     10  N   LIG    1        2.346   1.402  -0.013  0.00  0.00    -0.192 N 
ATOM     11  N   LIG    1        3.694   1.775  -0.024  0.00  0.00    -0.057 NA
ATOM     12  N   LIG    1        4.412   0.706  -0.037  0.00  0.00    -0.108 NA
ENDROOT
BRANCH   1  13
ATOM     13  S   LIG    1        4.201  -2.043  -0.049  0.00  0.00    +0.047 S 
ATOM     14  O   LIG    1        3.155  -2.828   0.509  0.00  0.00    -0.163 OA
ATOM     15  O   LIG    1        5.516  -2.034   0.488  0.00  0.00    -0.163 OA
BRANCH  13  19
ATOM     16  C   LIG    1        4.584  -3.292  -4.383  0.00  0.00    +0.000 A 
ATOM     17  C   LIG    1        5.660  -2.719  -3.731  0.00  0.00    +0.002 A 
ATOM     18  C   LIG    1        5.543  -2.338  -2.408  0.00  0.00    +0.027 A 
ATOM     19  C   LIG    1        4.350  -2.529  -1.736  0.00  0.00    +0.095 A 
ATOM     20  C   LIG    1        3.275  -3.106  -2.387  0.00  0.00    +0.027 A 
ATOM     21  C   LIG    1        3.391  -3.483  -3.712  0.00  0.00    +0.002 A 
ENDBRANCH  13  19
ENDBRANCH   1  13
BRANCH   4  22
ATOM     22  N   LIG    1       -1.186  -0.714   0.010  0.00  0.00    -0.326 N 
ATOM     23  H   LIG    1       -2.033  -0.242   0.021  0.00  0.00    +0.148 HD
BRANCH  22  24
ATOM     24  C   LIG    1       -1.164  -2.179   0.002  0.00  0.00    +0.134 C 
BRANCH  24  25
ATOM     25  C   LIG    1       -2.598  -2.711   0.013  0.00  0.00    +0.135 C 
ATOM     26  C   LIG    1       -2.586  -4.251   0.005  0.00  0.00    +0.035 C 
ATOM     27  C   LIG    1       -3.353  -4.644   1.291  0.00  0.00    +0.031 C 
ATOM     28  C   LIG    1       -4.167  -3.359   1.589  0.00  0.00    +0.160 C 
ATOM     29  O   LIG    1       -3.264  -2.295   1.218  0.00  0.00    -0.375 OA
ENDBRANCH  24  25
ENDBRANCH  22  24
ENDBRANCH   4  22
TORSDOF 5
