REMARK  Name = ZINC06855359
REMARK                            x       y       z     vdW  Elec       q    Type
REMARK                         _______ _______ _______ _____ _____    ______ ____
ROOT
ATOM      1  C   LIG    1        1.688  -2.708   1.320  0.00  0.00    +0.066 C 
ATOM      2  C   LIG    1        2.808  -3.436   1.091  0.00  0.00    +0.188 C 
ATOM      3  C   LIG    1        3.119  -3.405  -0.355  0.00  0.00    +0.282 C 
ATOM      4  N   LIG    1        2.202  -2.667  -1.006  0.00  0.00    -0.283 N 
ATOM      5  O   LIG    1        4.063  -3.963  -0.878  0.00  0.00    -0.267 OA
ATOM      6  C   LIG    1        1.235  -2.173  -0.018  0.00  0.00    +0.144 C 
ENDROOT
BRANCH   6   7
ATOM      7  C   LIG    1        1.238  -0.666  -0.001  0.00  0.00    -0.022 A 
ATOM      8  C   LIG    1        0.044   0.027  -0.088  0.00  0.00    +0.009 A 
ATOM      9  C   LIG    1        0.044   1.409  -0.072  0.00  0.00    +0.046 A 
ATOM     10  C   LIG    1        1.242   2.100   0.032  0.00  0.00    +0.117 A 
ATOM     11  C   LIG    1        2.438   1.403   0.120  0.00  0.00    +0.046 A 
ATOM     12  C   LIG    1        2.433   0.021   0.102  0.00  0.00    +0.009 A 
BRANCH  10  13
ATOM     13  O   LIG    1        1.244   3.459   0.049  0.00  0.00    -0.507 OA
ATOM     14  H   LIG    1        2.194   4.007   0.131  0.00  0.00    +0.292 HD
ENDBRANCH  10  13
ENDBRANCH   6   7
BRANCH   1  16
ATOM     15  C   LIG    1       -0.256  -1.764   2.638  0.00  0.00    +0.091 C 
ATOM     16  C   LIG    1        1.062  -2.492   2.571  0.00  0.00    +0.162 C 
ATOM     17  O   LIG    1        1.588  -2.892   3.589  0.00  0.00    -0.292 OA
ENDBRANCH   1  16
BRANCH   2  18
ATOM     18  O   LIG    1        3.527  -4.086   2.033  0.00  0.00    -0.502 OA
ATOM     19  H   LIG    1        3.260  -4.055   2.931  0.00  0.00    +0.292 HD
ENDBRANCH   2  18
BRANCH   4  20
ATOM     20  C   LIG    1        2.173  -2.403  -2.447  0.00  0.00    +0.114 C 
BRANCH  20  21
ATOM     21  C   LIG    1        2.970  -1.133  -2.749  0.00  0.00    +0.056 C 
BRANCH  21  22
ATOM     22  C   LIG    1        2.940  -0.861  -4.231  0.00  0.00    -0.021 A 
ATOM     23  C   LIG    1        3.867  -1.230  -5.129  0.00  0.00    +0.087 A 
ATOM     24  N   LIG    1        3.500  -0.809  -6.378  0.00  0.00    -0.360 N 
ATOM     25  C   LIG    1        2.296  -0.142  -6.313  0.00  0.00    +0.047 A 
ATOM     26  C   LIG    1        1.490   0.474  -7.264  0.00  0.00    +0.026 A 
ATOM     27  C   LIG    1        0.304   1.060  -6.879  0.00  0.00    +0.002 A 
ATOM     28  C   LIG    1       -0.091   1.051  -5.549  0.00  0.00    +0.001 A 
ATOM     29  C   LIG    1        0.688   0.455  -4.597  0.00  0.00    +0.010 A 
ATOM     30  H   LIG    1        4.145  -1.024  -7.243  0.00  0.00    +0.165 HD
ATOM     31  C   LIG    1        1.890  -0.151  -4.966  0.00  0.00    +0.003 A 
ENDBRANCH  21  22
ENDBRANCH  20  21
ENDBRANCH   4  20
TORSDOF 7
