REMARK  Name = ZINC08220551
REMARK                            x       y       z     vdW  Elec       q    Type
REMARK                         _______ _______ _______ _____ _____    ______ ____
ROOT
ATOM      1  C   LIG    1        5.221  -7.321  -7.120  0.00  0.00    +0.005 C 
ATOM      2  C   LIG    1        3.900  -6.687  -6.681  0.00  0.00    -0.031 C 
ATOM      3  C   LIG    1        2.739  -7.534  -7.202  0.00  0.00    -0.000 C 
ATOM      4  C   LIG    1        1.402  -7.006  -6.660  0.00  0.00    -0.015 C 
ATOM      5  C   LIG    1        1.490  -7.000  -5.139  0.00  0.00    -0.065 C 
ATOM      6  N   LIG    1        2.516  -6.046  -4.779  0.00  0.00    +0.384 N 
ATOM      7  H   LIG    1        2.373  -5.170  -5.294  0.00  0.00    -0.081 HD
ATOM      8  C   LIG    1        2.370  -5.781  -3.336  0.00  0.00    -0.064 C 
ATOM      9  C   LIG    1        2.743  -4.299  -3.027  0.00  0.00    -0.011 C 
ATOM     10  C   LIG    1        1.592  -3.836  -2.129  0.00  0.00    -0.003 C 
ATOM     11  C   LIG    1        0.358  -4.486  -2.808  0.00  0.00    -0.027 C 
ATOM     12  C   LIG    1        0.043  -3.764  -4.120  0.00  0.00    +0.011 C 
ATOM     13  C   LIG    1       -0.807  -4.342  -1.846  0.00  0.00    +0.007 C 
ATOM     14  C   LIG    1       -1.093  -2.840  -1.698  0.00  0.00    +0.005 C 
ATOM     15  C   LIG    1        0.140  -2.068  -1.191  0.00  0.00    +0.003 C 
ATOM     16  C   LIG    1       -0.179  -0.584  -1.139  0.00  0.00    -0.008 C 
ATOM     17  C   LIG    1       -1.002  -0.228  -2.378  0.00  0.00    +0.016 C 
ATOM     18  C   LIG    1       -1.025  -0.274   0.100  0.00  0.00    +0.014 C 
ATOM     19  C   LIG    1       -1.312   1.228   0.157  0.00  0.00    +0.032 C 
ATOM     20  C   LIG    1        0.002   1.998   0.304  0.00  0.00    +0.119 C 
ATOM     21  C   LIG    1        0.868   1.772  -0.938  0.00  0.00    +0.062 C 
ATOM     22  C   LIG    1        1.050   0.276  -1.130  0.00  0.00    -0.065 C 
ATOM     23  C   LIG    1        2.258  -0.184  -1.273  0.00  0.00    -0.027 C 
ATOM     24  C   LIG    1        2.562  -1.642  -1.454  0.00  0.00    +0.031 C 
ATOM     25  C   LIG    1        1.350  -2.337  -2.087  0.00  0.00    +0.000 C 
ATOM     26  C   LIG    1        0.831  -5.907  -3.099  0.00  0.00    -0.017 C 
ATOM     27  C   LIG    1        0.258  -6.375  -4.462  0.00  0.00    -0.026 C 
ATOM     28  C   LIG    1       -0.841  -7.420  -4.260  0.00  0.00    +0.006 C 
ATOM     29  C   LIG    1        3.863  -6.604  -5.148  0.00  0.00    -0.075 C 
ENDROOT
BRANCH  20  30
ATOM     30  O   LIG    1       -0.277   3.393   0.444  0.00  0.00    -0.391 OA
ATOM     31  H   LIG    1        0.511   3.944   0.542  0.00  0.00    +0.210 HD
ENDBRANCH  20  30
TORSDOF 1
