REMARK  Name = ZINC05934431
REMARK                            x       y       z     vdW  Elec       q    Type
REMARK                         _______ _______ _______ _____ _____    ______ ____
ROOT
ATOM      1  C   LIG    1       -4.308   1.102  -0.077  0.00  0.00    +0.091 C 
ENDROOT
BRANCH   1   2
ATOM      2  C   LIG    1       -2.862   1.601  -0.036  0.00  0.00    -0.055 C 
ATOM      3  N   LIG    1       -2.221   1.120   1.202  0.00  0.00    +0.382 N 
ATOM      4  H   LIG    1       -2.720   1.505   2.013  0.00  0.00    -0.085 HD
ATOM      5  H   LIG    1       -2.263   0.095   1.230  0.00  0.00    -0.085 HD
ATOM      6  C   LIG    1       -0.810   1.550   1.252  0.00  0.00    -0.082 C 
ATOM      7  C   LIG    1       -0.737   3.079   1.262  0.00  0.00    -0.019 C 
ATOM      8  C   LIG    1       -1.401   3.627  -0.004  0.00  0.00    -0.003 C 
ATOM      9  C   LIG    1       -2.850   3.131  -0.064  0.00  0.00    -0.015 C 
ENDBRANCH   1   2
BRANCH   1  13
ATOM     10  C   LIG    1       -6.307   2.802  -3.447  0.00  0.00    +0.000 A 
ATOM     11  C   LIG    1       -6.716   3.123  -2.167  0.00  0.00    +0.000 A 
ATOM     12  C   LIG    1       -6.069   2.573  -1.076  0.00  0.00    +0.004 A 
ATOM     13  C   LIG    1       -5.013   1.702  -1.266  0.00  0.00    -0.037 A 
ATOM     14  C   LIG    1       -4.601   1.384  -2.546  0.00  0.00    +0.004 A 
ATOM     15  C   LIG    1       -5.250   1.931  -3.637  0.00  0.00    +0.000 A 
ENDBRANCH   1  13
BRANCH   1  16
ATOM     16  C   LIG    1       -4.318  -0.401  -0.192  0.00  0.00    +0.216 C 
ATOM     17  N   LIG    1       -5.490  -1.065  -0.244  0.00  0.00    -0.329 N 
ATOM     18  H   LIG    1       -5.496  -2.032  -0.318  0.00  0.00    +0.145 HD
ATOM     19  H   LIG    1       -6.326  -0.575  -0.208  0.00  0.00    +0.145 HD
ATOM     20  O   LIG    1       -3.272  -1.012  -0.237  0.00  0.00    -0.275 OA
ENDBRANCH   1  16
TORSDOF 3
