REMARK  Name = ZINC06529827
REMARK                            x       y       z     vdW  Elec       q    Type
REMARK                         _______ _______ _______ _____ _____    ______ ____
ROOT
ATOM      1  C   LIG    1       -0.019   1.531   0.011  0.00  0.00    +0.005 C 
ATOM      2  C   LIG    1        1.415   2.066  -0.000  0.00  0.00    +0.007 C 
ATOM      3  C   LIG    1        2.078   1.810   1.359  0.00  0.00    +0.057 C 
ATOM      4  C   LIG    1        1.883   0.355   1.711  0.00  0.00    +0.067 A 
ATOM      5  C   LIG    1        0.937  -0.465   1.085  0.00  0.00    +0.007 A 
ATOM      6  C   LIG    1        1.067  -1.702   1.670  0.00  0.00    +0.146 A 
ATOM      7  N   LIG    1        2.064  -1.573   2.603  0.00  0.00    -0.270 N 
ATOM      8  H   LIG    1        2.384  -2.283   3.181  0.00  0.00    +0.189 HD
ATOM      9  N   LIG    1        2.510  -0.364   2.596  0.00  0.00    -0.178 NA
ATOM     10  C   LIG    1        0.002  -0.004   0.002  0.00  0.00    +0.039 C 
ENDROOT
BRANCH   6  11
ATOM     11  C   LIG    1        0.299  -2.913   1.359  0.00  0.00    +0.355 C 
ATOM     12  O   LIG    1        0.523  -3.953   1.964  0.00  0.00    -0.243 OA
BRANCH  11  13
ATOM     13  O   LIG    1       -0.567  -2.883   0.494  0.00  0.00    -0.476 OA
ATOM     14  H   LIG    1       -0.739  -2.086   0.031  0.00  0.00    +0.295 HD
ENDBRANCH  11  13
ENDBRANCH   6  11
TORSDOF 2
