REMARK  Name = ZINC06398232
REMARK                            x       y       z     vdW  Elec       q    Type
REMARK                         _______ _______ _______ _____ _____    ______ ____
ROOT
ATOM      1  N   LIG    1       -0.823   1.749   1.077  0.00  0.00    +0.382 N 
ATOM      2  H   LIG    1       -1.121   2.730   1.128  0.00  0.00    -0.081 HD
ENDROOT
BRANCH   1   3
ATOM      3  C   LIG    1        0.182   1.497   2.131  0.00  0.00    -0.064 C 
ATOM      4  C   LIG    1        0.888   0.156   1.896  0.00  0.00    -0.010 C 
ATOM      5  C   LIG    1        1.780  -0.142   3.103  0.00  0.00    +0.042 C 
ATOM      6  C   LIG    1        2.629   1.052   3.429  0.00  0.00    -0.002 C 
ATOM      7  C   LIG    1        2.384   2.266   2.989  0.00  0.00    -0.016 C 
ATOM      8  C   LIG    1        1.228   2.614   2.097  0.00  0.00    +0.013 C 
BRANCH   6   9
ATOM      9  C   LIG    1        3.774   0.857   4.267  0.00  0.00    -0.074 C 
ATOM     10  C   LIG    1        4.712   0.697   4.954  0.00  0.00    +0.009 C 
ENDBRANCH   6   9
ENDBRANCH   1   3
BRANCH   1  11
ATOM     11  C   LIG    1       -0.233   1.496  -0.254  0.00  0.00    -0.079 C 
BRANCH  11  13
ATOM     12  C   LIG    1       -0.606   1.740  -2.713  0.00  0.00    +0.002 C 
ATOM     13  C   LIG    1       -1.212   1.975  -1.328  0.00  0.00    -0.022 C 
ENDBRANCH  11  13
ENDBRANCH   1  11
BRANCH   1  14
ATOM     14  C   LIG    1       -2.000   0.878   1.282  0.00  0.00    -0.079 C 
BRANCH  14  15
ATOM     15  C   LIG    1       -2.778   1.382   2.499  0.00  0.00    -0.022 C 
ATOM     16  C   LIG    1       -4.077   0.586   2.638  0.00  0.00    +0.002 C 
ENDBRANCH  14  15
ENDBRANCH   1  14
TORSDOF 6
