REMARK  Name = ZINC06553187
REMARK                            x       y       z     vdW  Elec       q    Type
REMARK                         _______ _______ _______ _____ _____    ______ ____
ROOT
ATOM      1  S   LIG    1        2.917  -1.021   2.863  0.00  0.00    +0.044 S 
ATOM      2  O   LIG    1        2.921  -2.436   2.733  0.00  0.00    -0.155 OA
ATOM      3  O   LIG    1        2.368  -0.402   4.019  0.00  0.00    -0.155 OA
ENDROOT
BRANCH   1   4
ATOM      4  N   LIG    1        4.516  -0.593   2.873  0.00  0.00    -0.221 N 
ATOM      5  H   LIG    1        4.880  -0.035   2.148  0.00  0.00    +0.173 HD
BRANCH   4   6
ATOM      6  C   LIG    1        5.348  -1.022   3.909  0.00  0.00    +0.048 A 
ATOM      7  C   LIG    1        4.837  -1.813   4.930  0.00  0.00    +0.026 A 
ATOM      8  C   LIG    1        5.662  -2.237   5.953  0.00  0.00    +0.030 A 
ATOM      9  C   LIG    1        6.996  -1.873   5.962  0.00  0.00    +0.105 A 
ATOM     10  C   LIG    1        7.509  -1.085   4.948  0.00  0.00    +0.030 A 
ATOM     11  C   LIG    1        6.690  -0.663   3.918  0.00  0.00    +0.026 A 
BRANCH   9  12
ATOM     12  S   LIG    1        8.046  -2.414   7.270  0.00  0.00    +0.056 S 
ATOM     13  O   LIG    1        7.203  -2.684   8.382  0.00  0.00    -0.153 OA
ATOM     14  O   LIG    1        9.122  -1.488   7.337  0.00  0.00    -0.153 OA
BRANCH  12  15
ATOM     15  N   LIG    1        8.697  -3.864   6.807  0.00  0.00    -0.204 NA
ATOM     16  H   LIG    1        9.310  -4.332   7.396  0.00  0.00    +0.144 HD
ATOM     17  H   LIG    1        8.467  -4.247   5.946  0.00  0.00    +0.144 HD
ENDBRANCH  12  15
ENDBRANCH   9  12
ENDBRANCH   4   6
ENDBRANCH   1   4
BRANCH   1  18
ATOM     18  C   LIG    1        2.238  -0.258   1.364  0.00  0.00    +0.203 C 
BRANCH  18  28
ATOM     19  C   LIG    1       -0.019   1.526   0.010  0.00  0.00    +0.012 C 
ATOM     20  C   LIG    1        0.002  -0.004   0.002  0.00  0.00    -0.018 C 
ATOM     21  C   LIG    1        0.557  -0.556  -1.312  0.00  0.00    +0.012 C 
ATOM     22  C   LIG    1       -1.400  -0.616   0.356  0.00  0.00    +0.003 C 
ATOM     23  C   LIG    1       -1.029  -2.124   0.492  0.00  0.00    +0.005 C 
ATOM     24  C   LIG    1        0.399  -2.119   1.085  0.00  0.00    +0.017 C 
ATOM     25  C   LIG    1       -1.563  -0.104   1.820  0.00  0.00    +0.079 C 
ATOM     26  C   LIG    1       -0.152  -0.089   2.388  0.00  0.00    +0.142 C 
ATOM     27  O   LIG    1        0.188   0.246   3.498  0.00  0.00    -0.297 OA
ATOM     28  C   LIG    1        0.749  -0.591   1.251  0.00  0.00    +0.055 C 
ENDBRANCH  18  28
ENDBRANCH   1  18
TORSDOF 6
