REMARK  Name = ZINC08579328
REMARK                            x       y       z     vdW  Elec       q    Type
REMARK                         _______ _______ _______ _____ _____    ______ ____
ROOT
ATOM      1  N   LIG    1       -0.521   3.451   2.599  0.00  0.00    -0.219 N 
ATOM      2  H   LIG    1       -1.480   3.597   2.582  0.00  0.00    +0.176 HD
ENDROOT
BRANCH   1   5
ATOM      3  C   LIG    1       -0.718   1.572   1.248  0.00  0.00    +0.034 C 
ATOM      4  C   LIG    1       -0.108   0.451   0.446  0.00  0.00    +0.062 C 
ATOM      5  N   LIG    1        0.030   2.341   1.946  0.00  0.00    -0.190 NA
BRANCH   3   7
ATOM      6  C   LIG    1       -2.557   2.845   0.176  0.00  0.00    +0.010 C 
ATOM      7  C   LIG    1       -2.209   1.788   1.227  0.00  0.00    +0.049 C 
ENDBRANCH   3   7
ENDBRANCH   1   5
BRANCH   1   8
ATOM      8  C   LIG    1        0.281   4.316   3.251  0.00  0.00    +0.147 C 
ATOM      9  S   LIG    1       -0.393   5.673   4.048  0.00  0.00    -0.017 S 
BRANCH   8  10
ATOM     10  N   LIG    1        1.613   4.114   3.274  0.00  0.00    -0.339 N 
ATOM     11  H   LIG    1        2.191   4.737   3.743  0.00  0.00    +0.144 HD
ATOM     12  H   LIG    1        1.995   3.345   2.822  0.00  0.00    +0.144 HD
ENDBRANCH   8  10
ENDBRANCH   1   8
TORSDOF 4
