REMARK  Name = ZINC06262659
REMARK                            x       y       z     vdW  Elec       q    Type
REMARK                         _______ _______ _______ _____ _____    ______ ____
ROOT
ATOM      1  C   LIG    1        0.707  -0.490  -1.238  0.00  0.00    +0.000 A 
ATOM      2  C   LIG    1        1.215   0.418  -2.142  0.00  0.00    +0.018 A 
ATOM      3  C   LIG    1        1.869  -0.033  -3.290  0.00  0.00    +0.010 A 
ATOM      4  C   LIG    1        2.006  -1.403  -3.518  0.00  0.00    +0.018 A 
ATOM      5  C   LIG    1        1.495  -2.305  -2.609  0.00  0.00    +0.000 A 
ATOM      6  C   LIG    1        0.850  -1.852  -1.465  0.00  0.00    +0.124 A 
ENDROOT
BRANCH   3   7
ATOM      7  C   LIG    1        2.414   0.938  -4.262  0.00  0.00    +0.133 A 
ATOM      8  N   LIG    1        2.401   2.264  -4.241  0.00  0.00    -0.140 NA
ATOM      9  N   LIG    1        2.919   2.951  -5.163  0.00  0.00    -0.135 NA
ATOM     10  C   LIG    1        3.508   2.387  -6.211  0.00  0.00    +0.156 A 
ATOM     11  S   LIG    1        3.288   0.658  -5.800  0.00  0.00    -0.040 S 
BRANCH  10  12
ATOM     12  S   LIG    1        4.290   3.128  -7.605  0.00  0.00    -0.114 S 
ATOM     13  H   LIG    1        4.220   4.482  -7.497  0.00  0.00    +0.109 HD
ENDBRANCH  10  12
ENDBRANCH   3   7
BRANCH   1  15
ATOM     14  C   LIG    1       -0.019   1.526   0.010  0.00  0.00    +0.015 C 
ATOM     15  C   LIG    1        0.002  -0.004   0.002  0.00  0.00    -0.009 C 
ATOM     16  C   LIG    1       -1.433  -0.534   0.013  0.00  0.00    +0.015 C 
ATOM     17  C   LIG    1        0.742  -0.511   1.242  0.00  0.00    +0.015 C 
ENDBRANCH   1  15
BRANCH   5  18
ATOM     18  C   LIG    1        1.642  -3.785  -2.853  0.00  0.00    -0.009 C 
ATOM     19  C   LIG    1        0.256  -4.428  -2.936  0.00  0.00    +0.015 C 
ATOM     20  C   LIG    1        2.430  -4.417  -1.704  0.00  0.00    +0.015 C 
ATOM     21  C   LIG    1        2.389  -4.013  -4.169  0.00  0.00    +0.015 C 
ENDBRANCH   5  18
BRANCH   6  22
ATOM     22  O   LIG    1        0.353  -2.745  -0.569  0.00  0.00    -0.506 OA
ATOM     23  H   LIG    1       -0.560  -3.011  -0.744  0.00  0.00    +0.292 HD
ENDBRANCH   6  22
TORSDOF 5
