REMARK  Name = ZINC06071859
REMARK                            x       y       z     vdW  Elec       q    Type
REMARK                         _______ _______ _______ _____ _____    ______ ____
ROOT
ATOM      1  C   LIG    1        4.611   0.906  -4.269  0.00  0.00    +0.034 A 
ATOM      2  C   LIG    1        5.800   0.184  -4.218  0.00  0.00    +0.024 A 
ATOM      3  C   LIG    1        5.915  -0.896  -3.373  0.00  0.00    +0.015 A 
ATOM      4  C   LIG    1        4.838  -1.268  -2.565  0.00  0.00    +0.037 A 
ATOM      5  C   LIG    1        3.643  -0.545  -2.622  0.00  0.00    +0.015 A 
ATOM      6  C   LIG    1        3.535   0.538  -3.466  0.00  0.00    +0.024 A 
ENDROOT
BRANCH   4   7
ATOM      7  C   LIG    1        4.958  -2.427  -1.659  0.00  0.00    +0.251 C 
ATOM      8  N   LIG    1        4.143  -2.534  -0.591  0.00  0.00    -0.267 N 
ATOM      9  C   LIG    1        4.176  -3.741   0.240  0.00  0.00    +0.114 C 
ATOM     10  C   LIG    1        3.253  -4.776  -0.407  0.00  0.00    +0.018 C 
ATOM     11  C   LIG    1        2.108  -4.013  -1.099  0.00  0.00    -0.009 C 
ATOM     12  C   LIG    1        1.365  -3.166  -0.067  0.00  0.00    -0.037 C 
ATOM     13  C   LIG    1        1.935  -1.773   0.003  0.00  0.00    -0.040 A 
ATOM     14  C   LIG    1        1.085  -0.731   0.340  0.00  0.00    +0.004 A 
ATOM     15  C   LIG    1        1.552   0.567   0.389  0.00  0.00    +0.000 A 
ATOM     16  C   LIG    1        2.877   0.841   0.102  0.00  0.00    +0.002 A 
ATOM     17  C   LIG    1        3.734  -0.190  -0.229  0.00  0.00    +0.024 A 
ATOM     18  C   LIG    1        3.266  -1.497  -0.274  0.00  0.00    +0.038 A 
ATOM     19  O   LIG    1        5.793  -3.284  -1.876  0.00  0.00    -0.270 OA
BRANCH  12  20
ATOM     20  N   LIG    1       -0.066  -3.069  -0.421  0.00  0.00    +0.381 N 
ATOM     21  H   LIG    1       -0.512  -2.366   0.180  0.00  0.00    -0.082 HD
ATOM     22  C   LIG    1       -0.729  -4.373  -0.209  0.00  0.00    -0.096 C 
ATOM     23  C   LIG    1       -0.210  -2.653  -1.832  0.00  0.00    -0.096 C 
ENDBRANCH  12  20
ENDBRANCH   4   7
BRANCH   1  25
ATOM     24  C   LIG    1        5.570   2.777  -5.371  0.00  0.00    +0.249 C 
ATOM     25  N   LIG    1        4.497   1.999  -5.125  0.00  0.00    -0.281 N 
ATOM     26  H   LIG    1        3.646   2.201  -5.544  0.00  0.00    +0.155 HD
ATOM     27  O   LIG    1        6.657   2.474  -4.920  0.00  0.00    -0.270 OA
BRANCH  24  34
ATOM     28  C   LIG    1        7.903   4.374  -5.985  0.00  0.00    +0.044 C 
ATOM     29  C   LIG    1        6.543   4.777  -6.493  0.00  0.00    -0.038 A 
ATOM     30  C   LIG    1        6.401   5.916  -7.259  0.00  0.00    +0.004 A 
ATOM     31  C   LIG    1        5.152   6.287  -7.726  0.00  0.00    +0.000 A 
ATOM     32  C   LIG    1        4.040   5.519  -7.431  0.00  0.00    +0.001 A 
ATOM     33  C   LIG    1        4.169   4.376  -6.670  0.00  0.00    +0.013 A 
ATOM     34  C   LIG    1        5.425   3.999  -6.191  0.00  0.00    +0.040 A 
ENDBRANCH  24  34
ENDBRANCH   1  25
TORSDOF 4
