REMARK  Name = ZINC06500184
REMARK                            x       y       z     vdW  Elec       q    Type
REMARK                         _______ _______ _______ _____ _____    ______ ____
ROOT
ATOM      1  C   LIG    1       -0.019   1.526   0.010  0.00  0.00    +0.014 C 
ATOM      2  C   LIG    1        0.002  -0.004   0.002  0.00  0.00    -0.003 C 
ATOM      3  C   LIG    1       -1.416  -0.538   0.074  0.00  0.00    +0.010 C 
ATOM      4  C   LIG    1       -2.078   0.100   1.306  0.00  0.00    +0.005 C 
ATOM      5  C   LIG    1       -1.299  -0.197   2.584  0.00  0.00    +0.002 C 
ATOM      6  C   LIG    1        0.175   0.216   2.463  0.00  0.00    -0.003 C 
ATOM      7  C   LIG    1        0.916  -0.199   3.737  0.00  0.00    +0.008 C 
ATOM      8  C   LIG    1        0.362   0.596   4.922  0.00  0.00    +0.032 C 
ATOM      9  C   LIG    1       -1.140   0.390   4.991  0.00  0.00    -0.060 C 
ATOM     10  C   LIG    1       -1.668   0.067   6.171  0.00  0.00    +0.046 C 
ATOM     11  C   LIG    1       -3.116  -0.128   6.298  0.00  0.00    +0.156 C 
ATOM     12  C   LIG    1       -3.981   0.521   5.235  0.00  0.00    +0.080 C 
ATOM     13  C   LIG    1       -3.398   0.137   3.876  0.00  0.00    +0.019 C 
ATOM     14  O   LIG    1       -3.596  -0.774   7.206  0.00  0.00    -0.293 OA
ATOM     15  C   LIG    1       -1.935   0.569   3.750  0.00  0.00    -0.007 C 
ATOM     16  C   LIG    1       -1.919   2.059   3.401  0.00  0.00    +0.016 C 
ATOM     17  C   LIG    1        0.863  -0.503  -1.154  0.00  0.00    +0.121 C 
ATOM     18  C   LIG    1        2.304  -0.574  -0.591  0.00  0.00    +0.032 C 
ATOM     19  C   LIG    1        2.207  -0.192   0.911  0.00  0.00    +0.007 C 
ATOM     20  C   LIG    1        0.751  -0.527   1.257  0.00  0.00    +0.001 C 
ENDROOT
BRANCH  17  21
ATOM     21  O   LIG    1        0.802   0.415  -2.248  0.00  0.00    -0.391 OA
ATOM     22  H   LIG    1        1.331   0.150  -3.013  0.00  0.00    +0.210 HD
ENDBRANCH  17  21
TORSDOF 1
