REMARK  Name = ZINC08021086
REMARK                            x       y       z     vdW  Elec       q    Type
REMARK                         _______ _______ _______ _____ _____    ______ ____
ROOT
ATOM      1  C   LIG    1        0.326   6.745  -3.848  0.00  0.00    +0.165 A 
ATOM      2  N   LIG    1       -0.907   6.576  -3.412  0.00  0.00    -0.233 NA
ATOM      3  C   LIG    1       -1.146   6.130  -2.194  0.00  0.00    +0.124 A 
ATOM      4  C   LIG    1       -0.091   5.857  -1.388  0.00  0.00    +0.015 A 
ATOM      5  S   LIG    1        1.270   6.260  -2.474  0.00  0.00    -0.057 S 
ENDROOT
BRANCH   1   7
ATOM      6  C   LIG    1       -0.141   7.527  -6.037  0.00  0.00    +0.250 C 
ATOM      7  N   LIG    1        0.758   7.195  -5.089  0.00  0.00    -0.261 N 
ATOM      8  H   LIG    1        1.707   7.270  -5.274  0.00  0.00    +0.157 HD
ATOM      9  O   LIG    1       -1.331   7.432  -5.805  0.00  0.00    -0.270 OA
BRANCH   6  13
ATOM     10  C   LIG    1        1.181   8.903  -9.830  0.00  0.00    +0.120 A 
ATOM     11  C   LIG    1       -0.180   8.795  -9.567  0.00  0.00    +0.046 A 
ATOM     12  C   LIG    1       -0.613   8.349  -8.339  0.00  0.00    +0.016 A 
ATOM     13  C   LIG    1        0.318   8.004  -7.355  0.00  0.00    +0.037 A 
ATOM     14  C   LIG    1        1.685   8.119  -7.621  0.00  0.00    +0.016 A 
ATOM     15  C   LIG    1        2.110   8.561  -8.854  0.00  0.00    +0.046 A 
BRANCH  10  17
ATOM     16  C   LIG    1        3.015   9.430 -11.245  0.00  0.00    +0.277 C 
ATOM     17  O   LIG    1        1.603   9.343 -11.042  0.00  0.00    -0.495 OA
ENDBRANCH  10  17
ENDBRANCH   6  13
ENDBRANCH   1   7
BRANCH   4  18
ATOM     18  C   LIG    1       -0.070   5.347   0.030  0.00  0.00    +0.079 C 
BRANCH  18  19
ATOM     19  C   LIG    1       -0.050   3.840   0.022  0.00  0.00    -0.042 A 
ATOM     20  C   LIG    1        1.157   3.165   0.008  0.00  0.00    +0.004 A 
ATOM     21  C   LIG    1        1.175   1.783   0.000  0.00  0.00    +0.001 A 
ATOM     22  C   LIG    1       -0.013   1.076   0.008  0.00  0.00    +0.012 A 
ATOM     23  C   LIG    1       -1.219   1.750   0.017  0.00  0.00    +0.055 A 
ATOM     24  C   LIG    1       -1.238   3.133   0.030  0.00  0.00    +0.016 A 
BRANCH  23  25
ATOM     25  C   LIG    1       -2.514   0.979   0.019  0.00  0.00    +0.417 C 
ATOM     26  F   LIG    1       -3.257   1.314  -1.118  0.00  0.00    -0.166 F 
ATOM     27  F   LIG    1       -3.246   1.301   1.167  0.00  0.00    -0.166 F 
ATOM     28  F   LIG    1       -2.239  -0.392   0.010  0.00  0.00    -0.166 F 
ENDBRANCH  23  25
ENDBRANCH  18  19
ENDBRANCH   4  18
TORSDOF 6
