REMARK  Name = ZINC06535079
REMARK                            x       y       z     vdW  Elec       q    Type
REMARK                         _______ _______ _______ _____ _____    ______ ____
ROOT
ATOM      1  C   LIG    1        0.072   5.167   0.029  0.00  0.00    +0.009 A 
ATOM      2  C   LIG    1        0.045   3.810   0.016  0.00  0.00    +0.015 A 
ATOM      3  C   LIG    1        1.238   3.065   0.007  0.00  0.00    +0.059 A 
ATOM      4  C   LIG    1        2.468   3.706  -0.002  0.00  0.00    +0.023 A 
ATOM      5  C   LIG    1        2.515   5.107   0.005  0.00  0.00    -0.013 A 
ATOM      6  C   LIG    1        3.745   5.791  -0.002  0.00  0.00    +0.057 A 
ATOM      7  C   LIG    1        3.760   7.154   0.006  0.00  0.00    +0.159 A 
ATOM      8  C   LIG    1        2.562   7.886   0.021  0.00  0.00    +0.159 A 
ATOM      9  C   LIG    1        1.354   7.250   0.029  0.00  0.00    +0.057 A 
ATOM     10  C   LIG    1        1.304   5.847   0.021  0.00  0.00    -0.014 A 
ENDROOT
BRANCH   3  11
ATOM     11  C   LIG    1        1.181   1.591  -0.001  0.00  0.00    +0.337 C 
ATOM     12  O   LIG    1        2.209   0.943  -0.014  0.00  0.00    -0.245 OA
BRANCH  11  13
ATOM     13  O   LIG    1       -0.011   0.963   0.007  0.00  0.00    -0.477 OA
ATOM     14  H   LIG    1       -0.804   1.462   0.018  0.00  0.00    +0.295 HD
ENDBRANCH  11  13
ENDBRANCH   3  11
BRANCH   7  15
ATOM     15  O   LIG    1        4.949   7.813  -0.001  0.00  0.00    -0.503 OA
ATOM     16  H   LIG    1        5.301   7.998   0.880  0.00  0.00    +0.292 HD
ENDBRANCH   7  15
BRANCH   8  17
ATOM     17  O   LIG    1        2.606   9.244   0.028  0.00  0.00    -0.503 OA
ATOM     18  H   LIG    1        2.627   9.632   0.914  0.00  0.00    +0.292 HD
ENDBRANCH   8  17
TORSDOF 4
