REMARK  Name = ZINC06091650
REMARK                            x       y       z     vdW  Elec       q    Type
REMARK                         _______ _______ _______ _____ _____    ______ ____
ROOT
ATOM      1  C   LIG    1       -0.017   1.381   0.010  0.00  0.00    +0.007 A 
ATOM      2  C   LIG    1        1.048   2.266   0.004  0.00  0.00    +0.049 A 
ATOM      3  C   LIG    1        2.409   1.990  -0.010  0.00  0.00    +0.167 A 
ATOM      4  C   LIG    1        3.046   0.742  -0.023  0.00  0.00    +0.265 A 
ATOM      5  O   LIG    1        4.393   0.769  -0.036  0.00  0.00    -0.280 OA
ATOM      6  C   LIG    1        2.459  -0.533  -0.024  0.00  0.00    +0.210 A 
ATOM      7  C   LIG    1        1.096  -0.860  -0.013  0.00  0.00    +0.162 A 
ATOM      8  C   LIG    1        0.002  -0.004   0.002  0.00  0.00    +0.049 A 
ENDROOT
BRANCH   3   9
ATOM      9  O   LIG    1        3.229   3.071  -0.013  0.00  0.00    -0.503 OA
ATOM     10  H   LIG    1        2.866   3.934  -0.005  0.00  0.00    +0.292 HD
ENDBRANCH   3   9
BRANCH   7  11
ATOM     11  O   LIG    1        0.807  -2.185  -0.017  0.00  0.00    -0.503 OA
ATOM     12  H   LIG    1        1.501  -2.815  -0.027  0.00  0.00    +0.292 HD
ENDBRANCH   7  11
BRANCH   6  13
ATOM     13  O   LIG    1        3.313  -1.574  -0.037  0.00  0.00    -0.501 OA
ATOM     14  H   LIG    1        4.238  -1.421  -0.045  0.00  0.00    +0.292 HD
ENDBRANCH   6  13
TORSDOF 3
