REMARK  Name = ZINC06069082
REMARK                            x       y       z     vdW  Elec       q    Type
REMARK                         _______ _______ _______ _____ _____    ______ ____
ROOT
ATOM      1  O   LIG    1       -4.377   0.186  -1.419  0.00  0.00    -0.492 OA
ENDROOT
BRANCH   1   2
ATOM      2  C   LIG    1       -4.973   0.372  -2.626  0.00  0.00    +0.121 A 
ATOM      3  C   LIG    1       -4.258   0.155  -3.794  0.00  0.00    +0.046 A 
ATOM      4  C   LIG    1       -4.867   0.343  -5.020  0.00  0.00    +0.007 A 
ATOM      5  C   LIG    1       -6.187   0.748  -5.082  0.00  0.00    -0.046 A 
ATOM      6  C   LIG    1       -6.902   0.965  -3.919  0.00  0.00    +0.007 A 
ATOM      7  C   LIG    1       -6.300   0.772  -2.691  0.00  0.00    +0.046 A 
BRANCH   5   8
ATOM      8  C   LIG    1       -6.849   0.953  -6.421  0.00  0.00    +0.059 C 
BRANCH   8   9
ATOM      9  C   LIG    1       -7.495  -0.357  -6.877  0.00  0.00    +0.192 C 
ATOM     10  C   LIG    1       -6.435  -1.387  -7.204  0.00  0.00    +0.239 C 
ATOM     11  N   LIG    1       -6.570  -1.686  -8.448  0.00  0.00    -0.040 NA
ATOM     12  O   LIG    1       -7.621  -0.980  -9.062  0.00  0.00    -0.313 OA
ATOM     13  C   LIG    1       -8.231  -0.160  -8.187  0.00  0.00    +0.348 C 
ATOM     14  O   LIG    1       -9.168   0.580  -8.399  0.00  0.00    -0.247 OA
BRANCH  10  15
ATOM     15  O   LIG    1       -5.519  -1.897  -6.351  0.00  0.00    -0.493 OA
ATOM     16  H   LIG    1       -5.502  -1.613  -5.458  0.00  0.00    +0.294 HD
ENDBRANCH  10  15
ENDBRANCH   8   9
ENDBRANCH   5   8
ENDBRANCH   1   2
BRANCH   1  17
ATOM     17  C   LIG    1       -3.009  -0.226  -1.427  0.00  0.00    +0.235 C 
BRANCH  17  18
ATOM     18  C   LIG    1       -2.513  -0.381   0.012  0.00  0.00    +0.100 C 
BRANCH  18  21
ATOM     19  C   LIG    1       -0.018   1.503   0.010  0.00  0.00    +0.088 C 
ATOM     20  C   LIG    1        0.002  -0.004   0.002  0.00  0.00    +0.126 A 
ATOM     21  C   LIG    1       -1.071  -0.816   0.003  0.00  0.00    +0.086 A 
ATOM     22  N   LIG    1       -0.627  -2.083  -0.006  0.00  0.00    -0.214 NA
ATOM     23  C   LIG    1        0.685  -2.068  -0.012  0.00  0.00    +0.228 A 
ATOM     24  O   LIG    1        1.098  -0.788  -0.013  0.00  0.00    -0.440 OA
BRANCH  23  25
ATOM     25  C   LIG    1        1.562  -3.258  -0.023  0.00  0.00    +0.037 A 
ATOM     26  C   LIG    1        1.006  -4.538  -0.033  0.00  0.00    +0.013 A 
ATOM     27  C   LIG    1        1.830  -5.644  -0.043  0.00  0.00    +0.001 A 
ATOM     28  C   LIG    1        3.204  -5.487  -0.043  0.00  0.00    +0.000 A 
ATOM     29  C   LIG    1        3.762  -4.221  -0.033  0.00  0.00    +0.001 A 
ATOM     30  C   LIG    1        2.949  -3.106  -0.028  0.00  0.00    +0.013 A 
ENDBRANCH  23  25
ENDBRANCH  18  21
ENDBRANCH  17  18
ENDBRANCH   1  17
TORSDOF 8
