REMARK  Name = ZINC06422975
REMARK                            x       y       z     vdW  Elec       q    Type
REMARK                         _______ _______ _______ _____ _____    ______ ____
ROOT
ATOM      1  N   LIG    1       -0.017   1.388   0.010  0.00  0.00    -0.298 N 
ATOM      2  H   LIG    1        0.054   1.892   0.870  0.00  0.00    +0.154 HD
ENDROOT
BRANCH   1   3
ATOM      3  C   LIG    1       -1.125   1.939  -0.612  0.00  0.00    +0.154 A 
ATOM      4  C   LIG    1       -1.241   3.330  -0.773  0.00  0.00    +0.148 A 
ATOM      5  C   LIG    1       -2.386   3.831  -1.416  0.00  0.00    +0.163 A 
ATOM      6  N   LIG    1       -3.316   2.978  -1.835  0.00  0.00    -0.216 NA
ATOM      7  C   LIG    1       -3.167   1.683  -1.657  0.00  0.00    +0.225 A 
ATOM      8  N   LIG    1       -2.238   5.194  -1.445  0.00  0.00    -0.329 N 
ATOM      9  C   LIG    1       -1.049   5.489  -0.848  0.00  0.00    +0.198 A 
ATOM     10  H   LIG    1       -2.884   5.851  -1.833  0.00  0.00    +0.168 HD
ATOM     11  N   LIG    1       -0.464   4.394  -0.457  0.00  0.00    -0.231 NA
ATOM     12  N   LIG    1       -2.107   1.166  -1.063  0.00  0.00    -0.218 NA
ENDBRANCH   1   3
BRANCH   1  15
ATOM     13  C   LIG    1        1.281  -2.018   0.425  0.00  0.00    +0.015 A 
ATOM     14  C   LIG    1        1.234  -0.666   0.169  0.00  0.00    +0.024 A 
ATOM     15  C   LIG    1        0.028   0.021   0.269  0.00  0.00    +0.032 A 
ATOM     16  C   LIG    1       -1.134  -0.655   0.632  0.00  0.00    +0.024 A 
ATOM     17  C   LIG    1       -1.094  -2.008   0.884  0.00  0.00    +0.015 A 
ATOM     18  C   LIG    1        0.116  -2.700   0.785  0.00  0.00    +0.037 A 
BRANCH  18  19
ATOM     19  C   LIG    1        0.163  -4.149   1.060  0.00  0.00    +0.242 C 
ATOM     20  N   LIG    1       -0.962  -4.806   1.407  0.00  0.00    -0.325 N 
ATOM     21  H   LIG    1       -0.931  -5.759   1.588  0.00  0.00    +0.145 HD
ATOM     22  H   LIG    1       -1.802  -4.326   1.476  0.00  0.00    +0.145 HD
ATOM     23  O   LIG    1        1.216  -4.751   0.973  0.00  0.00    -0.270 OA
ENDBRANCH  18  19
ENDBRANCH   1  15
TORSDOF 3
