REMARK  Name = ZINC06328639
REMARK                            x       y       z     vdW  Elec       q    Type
REMARK                         _______ _______ _______ _____ _____    ______ ____
ROOT
ATOM      1  N   LIG    1       -0.112   2.188   1.118  0.00  0.00    -0.285 N 
ATOM      2  H   LIG    1        0.049   1.727   1.956  0.00  0.00    +0.155 HD
ATOM      3  C   LIG    1       -0.229   1.486  -0.026  0.00  0.00    +0.221 C 
ATOM      4  O   LIG    1       -0.354   2.066  -1.084  0.00  0.00    -0.275 OA
ENDROOT
BRANCH   1   6
ATOM      5  C   LIG    1       -0.823   4.248   2.159  0.00  0.00    +0.043 A 
ATOM      6  C   LIG    1       -0.224   3.583   1.097  0.00  0.00    +0.036 A 
ATOM      7  C   LIG    1        0.268   4.304   0.017  0.00  0.00    +0.043 A 
ATOM      8  C   LIG    1        0.151   5.681  -0.003  0.00  0.00    +0.044 A 
ATOM      9 CL   LIG    1        0.761   6.583  -1.356  0.00  0.00    -0.083 Cl
ATOM     10  C   LIG    1       -0.446   6.342   1.056  0.00  0.00    +0.040 A 
ATOM     11  C   LIG    1       -0.932   5.626   2.136  0.00  0.00    +0.044 A 
ATOM     12 CL   LIG    1       -1.680   6.459   3.463  0.00  0.00    -0.083 Cl
ENDBRANCH   1   6
BRANCH   3  13
ATOM     13  C   LIG    1       -0.209  -0.021   0.010  0.00  0.00    +0.093 C 
ATOM     14  C   LIG    1       -1.241  -0.572  -0.977  0.00  0.00    +0.040 C 
ATOM     15  C   LIG    1       -0.792  -0.325  -2.387  0.00  0.00    -0.030 C 
ATOM     16  C   LIG    1        0.423  -0.029  -2.719  0.00  0.00    -0.030 C 
ATOM     17  C   LIG    1        1.551   0.118  -1.740  0.00  0.00    +0.042 C 
ATOM     18  C   LIG    1        1.177  -0.529  -0.405  0.00  0.00    +0.113 C 
BRANCH  18  19
ATOM     19  C   LIG    1        2.191  -0.148   0.644  0.00  0.00    +0.309 C 
ATOM     20  O   LIG    1        1.843   0.466   1.624  0.00  0.00    -0.251 OA
BRANCH  19  21
ATOM     21  O   LIG    1        3.479  -0.492   0.488  0.00  0.00    -0.480 OA
ATOM     22  H   LIG    1        3.748  -0.969  -0.272  0.00  0.00    +0.295 HD
ENDBRANCH  19  21
ENDBRANCH  18  19
ENDBRANCH   3  13
TORSDOF 4
