REMARK  Name = ZINC06863164
REMARK                            x       y       z     vdW  Elec       q    Type
REMARK                         _______ _______ _______ _____ _____    ______ ____
ROOT
ATOM      1  N   LIG    1        0.002  -0.004   0.002  0.00  0.00    -0.172 NA
ATOM      2  C   LIG    1       -1.127  -0.680   0.109  0.00  0.00    +0.205 C 
ATOM      3  C   LIG    1       -2.435   0.003   0.135  0.00  0.00    +0.276 C 
ATOM      4  N   LIG    1       -3.547  -0.754   0.241  0.00  0.00    -0.234 N 
ATOM      5  H   LIG    1       -4.415  -0.321   0.256  0.00  0.00    +0.159 HD
ATOM      6  C   LIG    1       -3.479  -2.089   0.332  0.00  0.00    +0.313 C 
ATOM      7  N   LIG    1       -2.328  -2.775   0.321  0.00  0.00    -0.234 N 
ATOM      8  H   LIG    1       -2.353  -3.743   0.391  0.00  0.00    +0.159 HD
ATOM      9  O   LIG    1       -4.519  -2.711   0.430  0.00  0.00    -0.252 OA
ATOM     10  O   LIG    1       -2.509   1.215   0.058  0.00  0.00    -0.268 OA
ATOM     11  C   LIG    1       -1.137  -2.152   0.214  0.00  0.00    +0.276 C 
ATOM     12  O   LIG    1       -0.099  -2.787   0.205  0.00  0.00    -0.268 OA
ENDROOT
BRANCH   1  13
ATOM     13  N   LIG    1       -0.025   1.267  -0.214  0.00  0.00    -0.237 N 
ATOM     14  H   LIG    1       -0.873   1.717  -0.357  0.00  0.00    +0.174 HD
BRANCH  13  20
ATOM     15  C   LIG    1        2.380   1.352  -0.043  0.00  0.00    +0.028 A 
ATOM     16  C   LIG    1        3.557   2.072  -0.081  0.00  0.00    +0.047 A 
ATOM     17  C   LIG    1        3.526   3.440  -0.313  0.00  0.00    +0.117 A 
ATOM     18  C   LIG    1        2.313   4.085  -0.513  0.00  0.00    +0.047 A 
ATOM     19  C   LIG    1        1.136   3.366  -0.481  0.00  0.00    +0.028 A 
ATOM     20  C   LIG    1        1.165   1.996  -0.248  0.00  0.00    +0.049 A 
BRANCH  17  21
ATOM     21  O   LIG    1        4.685   4.150  -0.345  0.00  0.00    -0.507 OA
ATOM     22  H   LIG    1        4.955   4.501   0.514  0.00  0.00    +0.292 HD
ENDBRANCH  17  21
ENDBRANCH  13  20
ENDBRANCH   1  13
TORSDOF 3
