REMARK  Name = ZINC08214562
REMARK                            x       y       z     vdW  Elec       q    Type
REMARK                         _______ _______ _______ _____ _____    ______ ____
ROOT
ATOM      1  C   LIG    1       -0.054   1.554  -0.035  0.00  0.00    +0.213 C 
ENDROOT
BRANCH   1   3
ATOM      2  C   LIG    1       -0.062   2.628   2.158  0.00  0.00    -0.028 C 
ATOM      3  C   LIG    1       -0.746   2.018   1.221  0.00  0.00    +0.013 C 
BRANCH   2   4
ATOM      4  C   LIG    1        1.373   3.015   1.912  0.00  0.00    +0.027 C 
BRANCH   4   5
ATOM      5  C   LIG    1        1.555   4.508   2.198  0.00  0.00    +0.004 C 
BRANCH   5   6
ATOM      6  C   LIG    1        3.013   4.901   1.948  0.00  0.00    +0.000 C 
BRANCH   6   7
ATOM      7  C   LIG    1        3.194   6.393   2.234  0.00  0.00    +0.000 C 
BRANCH   7   8
ATOM      8  C   LIG    1        4.652   6.786   1.985  0.00  0.00    -0.000 C 
BRANCH   8  10
ATOM      9  C   LIG    1        6.291   8.671   2.021  0.00  0.00    +0.004 C 
ATOM     10  C   LIG    1        4.833   8.278   2.271  0.00  0.00    -0.003 C 
ENDBRANCH   8  10
ENDBRANCH   7   8
ENDBRANCH   6   7
ENDBRANCH   5   6
ENDBRANCH   4   5
ENDBRANCH   2   4
ENDBRANCH   1   3
BRANCH   1  11
ATOM     11  O   LIG    1       -0.526   2.317  -1.147  0.00  0.00    -0.376 OA
ATOM     12  H   LIG    1       -1.478   2.242  -1.301  0.00  0.00    +0.211 HD
ENDBRANCH   1  11
BRANCH   1  13
ATOM     13  C   LIG    1       -0.347   0.129  -0.258  0.00  0.00    -0.053 C 
ATOM     14  C   LIG    1       -0.580  -1.008  -0.436  0.00  0.00    -0.012 C 
BRANCH  14  15
ATOM     15  C   LIG    1       -0.854  -2.341  -0.644  0.00  0.00    -0.012 C 
ATOM     16  C   LIG    1       -1.087  -3.478  -0.822  0.00  0.00    -0.053 C 
BRANCH  16  17
ATOM     17  C   LIG    1       -1.379  -4.903  -1.045  0.00  0.00    +0.213 C 
BRANCH  17  18
ATOM     18  O   LIG    1       -2.790  -5.084  -1.183  0.00  0.00    -0.376 OA
ATOM     19  H   LIG    1       -3.300  -4.806  -0.410  0.00  0.00    +0.211 HD
ENDBRANCH  17  18
BRANCH  17  20
ATOM     20  C   LIG    1       -0.882  -5.708   0.128  0.00  0.00    +0.009 C 
ATOM     21  C   LIG    1       -1.702  -6.500   0.774  0.00  0.00    +0.007 C 
ENDBRANCH  17  20
ENDBRANCH  16  17
ENDBRANCH  14  15
ENDBRANCH   1  13
TORSDOF 13
