REMARK  Name = ZINC06093482
REMARK                            x       y       z     vdW  Elec       q    Type
REMARK                         _______ _______ _______ _____ _____    ______ ____
ROOT
ATOM      1  C   LIG    1        3.563   0.617  -0.029  0.00  0.00    +0.176 C 
ATOM      2  N   LIG    1        4.186  -0.524  -0.041  0.00  0.00    -0.185 NA
ENDROOT
BRANCH   1   5
ATOM      3  C   LIG    1       -0.016   1.344   0.009  0.00  0.00    +0.042 A 
ATOM      4  C   LIG    1        1.323   1.776  -0.001  0.00  0.00    +0.051 A 
ATOM      5  C   LIG    1        2.098   0.653  -0.015  0.00  0.00    +0.147 A 
ATOM      6  O   LIG    1        1.280  -0.418  -0.012  0.00  0.00    -0.462 OA
ATOM      7  C   LIG    1        0.002  -0.004   0.002  0.00  0.00    +0.196 A 
ENDBRANCH   1   5
BRANCH   2   8
ATOM      8  N   LIG    1        5.587  -0.558  -0.056  0.00  0.00    -0.218 N 
ATOM      9  H   LIG    1        6.092   0.270  -0.057  0.00  0.00    +0.176 HD
BRANCH   8  10
ATOM     10  C   LIG    1        6.232  -1.742  -0.068  0.00  0.00    +0.147 C 
ATOM     11  S   LIG    1        7.943  -1.783  -0.086  0.00  0.00    -0.017 S 
BRANCH  10  12
ATOM     12  N   LIG    1        5.530  -2.892  -0.067  0.00  0.00    -0.339 N 
ATOM     13  H   LIG    1        5.994  -3.744  -0.076  0.00  0.00    +0.144 HD
ATOM     14  H   LIG    1        4.560  -2.869  -0.057  0.00  0.00    +0.144 HD
ENDBRANCH  10  12
ENDBRANCH   8  10
ENDBRANCH   2   8
TORSDOF 4
