REMARK  Name = ZINC05956496
REMARK                            x       y       z     vdW  Elec       q    Type
REMARK                         _______ _______ _______ _____ _____    ______ ____
ROOT
ATOM      1  C   LIG    1        0.707  -0.490  -1.238  0.00  0.00    -0.046 A 
ATOM      2  C   LIG    1       -0.019  -0.717  -2.397  0.00  0.00    +0.004 A 
ATOM      3  C   LIG    1        0.615  -1.162  -3.537  0.00  0.00    +0.011 A 
ATOM      4  C   LIG    1        1.991  -1.383  -3.522  0.00  0.00    +0.007 A 
ATOM      5  C   LIG    1        2.954  -1.844  -4.538  0.00  0.00    +0.007 A 
ATOM      6  C   LIG    1        2.831  -2.222  -5.873  0.00  0.00    +0.010 A 
ATOM      7  C   LIG    1        3.948  -2.615  -6.579  0.00  0.00    +0.001 A 
ATOM      8  C   LIG    1        5.191  -2.636  -5.965  0.00  0.00    +0.002 A 
ATOM      9  C   LIG    1        5.326  -2.264  -4.645  0.00  0.00    +0.026 A 
ATOM     10  C   LIG    1        4.211  -1.864  -3.915  0.00  0.00    +0.047 A 
ATOM     11  N   LIG    1        4.054  -1.447  -2.605  0.00  0.00    -0.354 N 
ATOM     12  H   LIG    1        4.773  -1.372  -1.958  0.00  0.00    +0.166 HD
ATOM     13  C   LIG    1        2.727  -1.154  -2.351  0.00  0.00    +0.048 A 
ATOM     14  C   LIG    1        2.069  -0.699  -1.211  0.00  0.00    +0.029 A 
ENDROOT
BRANCH   1  16
ATOM     15  C   LIG    1       -0.019   1.526   0.010  0.00  0.00    +0.009 C 
ATOM     16  C   LIG    1        0.002  -0.004   0.002  0.00  0.00    +0.032 C 
ENDBRANCH   1  16
TORSDOF 1
