REMARK  Name = ZINC08552017
REMARK                            x       y       z     vdW  Elec       q    Type
REMARK                         _______ _______ _______ _____ _____    ______ ____
ROOT
ATOM      1  C   LIG    1       -8.462  -0.971   1.043  0.00  0.00    +0.022 C 
ATOM      2  C   LIG    1       -6.932  -0.935   1.093  0.00  0.00    +0.133 C 
ATOM      3  C   LIG    1       -6.393  -2.276   1.537  0.00  0.00    +0.313 C 
ATOM      4  O   LIG    1       -5.806  -2.172   2.730  0.00  0.00    -0.455 OA
ATOM      5  C   LIG    1       -5.930  -0.840   3.294  0.00  0.00    +0.241 C 
ATOM      6  C   LIG    1       -4.532  -0.315   3.676  0.00  0.00    +0.172 C 
ATOM      7  C   LIG    1       -4.112   0.718   2.656  0.00  0.00    +0.094 C 
ATOM      8  C   LIG    1       -2.892   0.378   1.799  0.00  0.00    +0.088 C 
ATOM      9  C   LIG    1       -2.022  -0.756   2.299  0.00  0.00    +0.236 C 
ATOM     10  C   LIG    1       -2.801  -2.002   1.890  0.00  0.00    +0.339 C 
ATOM     11  O   LIG    1       -3.793  -1.647   1.047  0.00  0.00    -0.433 OA
ATOM     12  O   LIG    1       -2.564  -3.125   2.264  0.00  0.00    -0.248 OA
ATOM     13  C   LIG    1       -2.235   1.694   1.447  0.00  0.00    +0.014 C 
ATOM     14  C   LIG    1       -2.551   2.624   2.640  0.00  0.00    +0.050 C 
ATOM     15  C   LIG    1       -3.555  -0.292   0.551  0.00  0.00    +0.322 C 
ATOM     16  O   LIG    1       -4.790   0.414   0.376  0.00  0.00    -0.319 OA
ATOM     17  C   LIG    1       -3.900   2.133   3.211  0.00  0.00    +0.190 C 
ATOM     18  O   LIG    1       -4.951   2.960   2.632  0.00  0.00    -0.458 OA
ATOM     19  C   LIG    1       -5.567   2.347   1.619  0.00  0.00    +0.344 C 
ATOM     20  O   LIG    1       -6.268   2.896   0.793  0.00  0.00    -0.247 OA
ATOM     21  C   LIG    1       -5.267   0.870   1.639  0.00  0.00    +0.214 C 
ATOM     22  O   LIG    1       -6.478  -3.299   0.893  0.00  0.00    -0.250 OA
ATOM     23  C   LIG    1       -6.455   0.070   2.161  0.00  0.00    +0.158 C 
ENDROOT
BRANCH  13  24
ATOM     24  C   LIG    1       -0.729   1.579   1.267  0.00  0.00    -0.034 C 
ATOM     25  C   LIG    1       -0.154   2.948   0.896  0.00  0.00    +0.011 C 
ATOM     26  C   LIG    1       -0.094   1.096   2.572  0.00  0.00    +0.011 C 
ATOM     27  C   LIG    1       -0.424   0.578   0.151  0.00  0.00    +0.011 C 
ENDBRANCH  13  24
BRANCH   6  28
ATOM     28  O   LIG    1       -4.580   0.251   4.990  0.00  0.00    -0.387 OA
ATOM     29  H   LIG    1       -4.845  -0.374   5.678  0.00  0.00    +0.210 HD
ENDBRANCH   6  28
BRANCH   9  30
ATOM     30  O   LIG    1       -1.799  -0.701   3.702  0.00  0.00    -0.380 OA
ATOM     31  H   LIG    1       -1.245  -1.418   4.040  0.00  0.00    +0.211 HD
ENDBRANCH   9  30
BRANCH  23  32
ATOM     32  O   LIG    1       -7.520   0.930   2.598  0.00  0.00    -0.380 OA
ATOM     33  H   LIG    1       -8.293   0.458   2.936  0.00  0.00    +0.210 HD
ENDBRANCH  23  32
TORSDOF 4
