REMARK  Name = ZINC08536348
REMARK                            x       y       z     vdW  Elec       q    Type
REMARK                         _______ _______ _______ _____ _____    ______ ____
ROOT
ATOM      1  C   LIG    1       -3.871  -1.831  -2.468  0.00  0.00    +0.077 A 
ATOM      2  C   LIG    1       -5.077  -1.387  -2.996  0.00  0.00    +0.030 A 
ATOM      3  C   LIG    1       -5.370  -2.197  -4.107  0.00  0.00    +0.068 A 
ATOM      4  C   LIG    1       -6.587  -2.075  -4.988  0.00  0.00    +0.068 C 
ATOM      5  N   LIG    1       -4.412  -3.073  -4.248  0.00  0.00    -0.178 NA
ATOM      6  N   LIG    1       -3.456  -2.871  -3.245  0.00  0.00    -0.276 N 
ATOM      7  H   LIG    1       -2.641  -3.384  -3.123  0.00  0.00    +0.189 HD
ENDROOT
BRANCH   2   8
ATOM      8  C   LIG    1       -5.901  -0.267  -2.482  0.00  0.00    -0.010 A 
ATOM      9  C   LIG    1       -6.497  -0.356  -1.225  0.00  0.00    +0.012 A 
ATOM     10  C   LIG    1       -7.265   0.687  -0.750  0.00  0.00    +0.050 A 
ATOM     11  C   LIG    1       -7.447   1.828  -1.520  0.00  0.00    +0.162 A 
ATOM     12  C   LIG    1       -6.853   1.924  -2.774  0.00  0.00    +0.163 A 
ATOM     13  O   LIG    1       -7.015   3.039  -3.537  0.00  0.00    -0.485 OA
ATOM     14  C   LIG    1       -8.095   3.910  -3.184  0.00  0.00    +0.270 C 
ATOM     15  C   LIG    1       -8.065   4.120  -1.664  0.00  0.00    +0.270 C 
ATOM     16  O   LIG    1       -8.212   2.844  -1.032  0.00  0.00    -0.485 OA
ATOM     17  C   LIG    1       -6.078   0.881  -3.253  0.00  0.00    +0.058 A 
ENDBRANCH   2   8
BRANCH   1  20
ATOM     18  C   LIG    1       -2.369  -1.527   0.958  0.00  0.00    -0.005 A 
ATOM     19  C   LIG    1       -3.025  -2.047  -0.137  0.00  0.00    +0.020 A 
ATOM     20  C   LIG    1       -3.170  -1.278  -1.293  0.00  0.00    +0.042 A 
ATOM     21  C   LIG    1       -2.647   0.022  -1.333  0.00  0.00    +0.129 A 
ATOM     22  C   LIG    1       -1.990   0.533  -0.228  0.00  0.00    +0.091 A 
ATOM     23  C   LIG    1       -1.856  -0.237   0.918  0.00  0.00    +0.124 A 
BRANCH  18  25
ATOM     24  C   LIG    1       -0.806  -2.958   2.247  0.00  0.00    +0.009 C 
ATOM     25  C   LIG    1       -2.213  -2.359   2.205  0.00  0.00    +0.035 C 
ENDBRANCH  18  25
BRANCH  21  26
ATOM     26  O   LIG    1       -2.783   0.776  -2.454  0.00  0.00    -0.506 OA
ATOM     27  H   LIG    1       -3.588   1.312  -2.472  0.00  0.00    +0.292 HD
ENDBRANCH  21  26
BRANCH  23  28
ATOM     28  O   LIG    1       -1.216   0.271   2.004  0.00  0.00    -0.506 OA
ATOM     29  H   LIG    1       -0.264   0.103   2.013  0.00  0.00    +0.292 HD
ENDBRANCH  23  28
ENDBRANCH   1  20
TORSDOF 5
