REMARK  Name = ZINC08577935
REMARK                            x       y       z     vdW  Elec       q    Type
REMARK                         _______ _______ _______ _____ _____    ______ ____
ROOT
ATOM      1  C   LIG    1       -0.013   1.086   0.008  0.00  0.00    +0.155 C 
ATOM      2  N   LIG    1       -0.721   1.571  -1.179  0.00  0.00    -0.280 N 
ATOM      3  C   LIG    1       -0.041   1.816  -2.314  0.00  0.00    +0.333 A 
ATOM      4  O   LIG    1        1.160   1.629  -2.338  0.00  0.00    -0.246 OA
ATOM      5  N   LIG    1       -0.657   2.256  -3.425  0.00  0.00    -0.262 N 
ATOM      6  C   LIG    1        0.129   2.501  -4.637  0.00  0.00    +0.157 C 
ATOM      7  C   LIG    1       -1.987   2.482  -3.439  0.00  0.00    +0.282 A 
ATOM      8  O   LIG    1       -2.532   2.887  -4.451  0.00  0.00    -0.265 OA
ATOM      9  C   LIG    1       -2.739   2.245  -2.271  0.00  0.00    +0.149 A 
ATOM     10  N   LIG    1       -4.077   2.364  -1.940  0.00  0.00    -0.332 N 
ATOM     11  C   LIG    1       -4.196   1.980  -0.638  0.00  0.00    +0.145 A 
ATOM     12  N   LIG    1       -3.009   1.639  -0.174  0.00  0.00    -0.210 NA
ATOM     13  H   LIG    1       -4.792   2.664  -2.523  0.00  0.00    +0.168 HD
ATOM     14  C   LIG    1       -2.091   1.783  -1.129  0.00  0.00    +0.168 A 
ENDROOT
BRANCH  11  15
ATOM     15  C   LIG    1       -5.454   1.950   0.131  0.00  0.00    +0.059 A 
ATOM     16  C   LIG    1       -6.655   2.331  -0.473  0.00  0.00    +0.019 A 
ATOM     17  C   LIG    1       -7.827   2.302   0.248  0.00  0.00    +0.046 A 
ATOM     18  C   LIG    1       -7.821   1.895   1.578  0.00  0.00    +0.124 A 
ATOM     19  C   LIG    1       -6.634   1.515   2.187  0.00  0.00    +0.092 A 
ATOM     20  C   LIG    1       -5.450   1.534   1.470  0.00  0.00    +0.134 A 
BRANCH  18  21
ATOM     21  O   LIG    1       -8.981   1.870   2.283  0.00  0.00    -0.495 OA
ATOM     22  C   LIG    1      -10.167   2.274   1.596  0.00  0.00    +0.277 C 
ENDBRANCH  18  21
BRANCH  20  23
ATOM     23  O   LIG    1       -4.288   1.157   2.063  0.00  0.00    -0.494 OA
ATOM     24  C   LIG    1       -4.361   0.746   3.429  0.00  0.00    +0.277 C 
ENDBRANCH  20  23
ENDBRANCH  11  15
TORSDOF 3
