REMARK  Name = ZINC06475522
REMARK                            x       y       z     vdW  Elec       q    Type
REMARK                         _______ _______ _______ _____ _____    ______ ____
ROOT
ATOM      1  N   LIG    1        0.002  -0.004   0.002  0.00  0.00    -0.182 N 
ATOM      2  C   LIG    1        1.055  -0.893  -0.508  0.00  0.00    +0.230 C 
ATOM      3  C   LIG    1        0.692  -2.331  -0.327  0.00  0.00    +0.252 C 
ATOM      4  N   LIG    1       -0.503  -2.545   0.245  0.00  0.00    -0.171 N 
ATOM      5  H   LIG    1       -0.903  -3.408   0.436  0.00  0.00    +0.178 HD
ATOM      6  O   LIG    1        1.420  -3.237  -0.675  0.00  0.00    -0.272 OA
ATOM      7  S   LIG    1       -1.170  -1.052   0.563  0.00  0.00    +0.129 S 
ATOM      8  O   LIG    1       -2.305  -0.908  -0.280  0.00  0.00    -0.135 OA
ATOM      9  O   LIG    1       -1.226  -0.907   1.976  0.00  0.00    -0.135 OA
ENDROOT
BRANCH   1  13
ATOM     10  C   LIG    1       -0.054   4.159   0.024  0.00  0.00    +0.000 A 
ATOM     11  C   LIG    1        1.153   3.486   0.009  0.00  0.00    +0.002 A 
ATOM     12  C   LIG    1        1.176   2.105   0.002  0.00  0.00    +0.025 A 
ATOM     13  C   LIG    1       -0.017   1.393   0.010  0.00  0.00    +0.053 A 
ATOM     14  C   LIG    1       -1.228   2.072   0.019  0.00  0.00    +0.025 A 
ATOM     15  C   LIG    1       -1.243   3.453   0.031  0.00  0.00    +0.002 A 
ENDBRANCH   1  13
TORSDOF 1
