REMARK  Name = ZINC06020644
REMARK                            x       y       z     vdW  Elec       q    Type
REMARK                         _______ _______ _______ _____ _____    ______ ____
ROOT
ATOM      1  C   LIG    1        1.423   1.615  -0.003  0.00  0.00    -0.005 C 
ENDROOT
BRANCH   1   2
ATOM      2  C   LIG    1        2.176   1.022  -1.195  0.00  0.00    -0.017 C 
BRANCH   2   4
ATOM      3  C   LIG    1        4.328   1.058  -2.465  0.00  0.00    -0.014 C 
ATOM      4  C   LIG    1        3.612   1.552  -1.206  0.00  0.00    -0.078 C 
BRANCH   4   5
ATOM      5  N   LIG    1        4.308   1.076   0.002  0.00  0.00    +0.380 N 
ATOM      6  H   LIG    1        3.832   1.445   0.834  0.00  0.00    -0.090 HD
ATOM      7  H   LIG    1        5.273   1.401   0.000  0.00  0.00    -0.090 HD
ATOM      8  H   LIG    1        4.294   0.058   0.036  0.00  0.00    -0.090 HD
ENDBRANCH   4   5
ENDBRANCH   2   4
ENDBRANCH   1   2
BRANCH   1   9
ATOM      9  C   LIG    1       -0.013   1.086   0.008  0.00  0.00    +0.002 C 
BRANCH   9  10
ATOM     10  N   LIG    1       -0.708   1.563  -1.200  0.00  0.00    +0.387 N 
ATOM     11  H   LIG    1       -0.194   1.250  -2.032  0.00  0.00    -0.088 HD
ATOM     12  H   LIG    1       -0.751   2.581  -1.200  0.00  0.00    -0.088 HD
ATOM     13  H   LIG    1       -1.653   1.185  -1.232  0.00  0.00    -0.088 HD
ENDBRANCH   9  10
BRANCH   9  14
ATOM     14  C   LIG    1       -0.702   1.560   1.219  0.00  0.00    -0.122 C 
ATOM     15  C   LIG    1       -1.251   1.939   2.185  0.00  0.00    +0.002 C 
ENDBRANCH   9  14
ENDBRANCH   1   9
TORSDOF 6
