REMARK  Name = ZINC05974922
REMARK                            x       y       z     vdW  Elec       q    Type
REMARK                         _______ _______ _______ _____ _____    ______ ____
ROOT
ATOM      1  C   LIG    1        0.679  -3.264  -0.022  0.00  0.00    +0.066 A 
ATOM      2  C   LIG    1       -0.472  -3.367   0.692  0.00  0.00    +0.110 A 
ATOM      3  N   LIG    1       -1.012  -4.596   0.404  0.00  0.00    -0.345 N 
ATOM      4  C   LIG    1       -0.171  -5.208  -0.481  0.00  0.00    +0.118 A 
ATOM      5  H   LIG    1       -1.837  -4.961   0.761  0.00  0.00    +0.167 HD
ATOM      6  N   LIG    1        0.834  -4.399  -0.732  0.00  0.00    -0.339 N 
ATOM      7  H   LIG    1        1.573  -4.590  -1.331  0.00  0.00    +0.167 HD
ENDROOT
BRANCH   4   8
ATOM      8  C   LIG    1       -0.362  -6.551  -1.062  0.00  0.00    +0.040 A 
ATOM      9  C   LIG    1        0.610  -7.452  -1.359  0.00  0.00    +0.095 A 
ATOM     10  N   LIG    1        0.049  -8.580  -1.880  0.00  0.00    -0.360 N 
ATOM     11  C   LIG    1       -1.322  -8.447  -1.939  0.00  0.00    +0.048 A 
ATOM     12  C   LIG    1       -2.342  -9.285  -2.377  0.00  0.00    +0.041 A 
ATOM     13  C   LIG    1       -3.654  -8.870  -2.297  0.00  0.00    +0.020 A 
ATOM     14 BR   LIG    1       -5.036 -10.018  -2.888  0.00  0.00    -0.050 Br
ATOM     15  C   LIG    1       -3.970  -7.615  -1.795  0.00  0.00    +0.016 A 
ATOM     16  C   LIG    1       -2.974  -6.770  -1.360  0.00  0.00    +0.012 A 
ATOM     17  H   LIG    1        0.543  -9.364  -2.167  0.00  0.00    +0.165 HD
ATOM     18  C   LIG    1       -1.643  -7.179  -1.427  0.00  0.00    +0.010 A 
ENDBRANCH   4   8
BRANCH   1  24
ATOM     19  C   LIG    1       -0.017   1.363   0.009  0.00  0.00    +0.001 A 
ATOM     20  C   LIG    1        1.170   2.083   0.002  0.00  0.00    +0.002 A 
ATOM     21  C   LIG    1        2.385   1.435  -0.013  0.00  0.00    +0.026 A 
ATOM     22  C   LIG    1        2.426   0.043  -0.021  0.00  0.00    +0.047 A 
ATOM     23  C   LIG    1        1.222  -0.680  -0.013  0.00  0.00    +0.009 A 
ATOM     24  C   LIG    1        1.601  -2.102  -0.025  0.00  0.00    +0.025 A 
ATOM     25  C   LIG    1        2.954  -2.144  -0.040  0.00  0.00    +0.093 A 
ATOM     26  N   LIG    1        3.456  -0.871  -0.037  0.00  0.00    -0.360 N 
ATOM     27  H   LIG    1        4.399  -0.646  -0.046  0.00  0.00    +0.165 HD
ATOM     28  C   LIG    1        0.002  -0.004   0.002  0.00  0.00    +0.010 A 
ENDBRANCH   1  24
TORSDOF 2
