REMARK  Name = ZINC06844860
REMARK                            x       y       z     vdW  Elec       q    Type
REMARK                         _______ _______ _______ _____ _____    ______ ____
ROOT
ATOM      1  C   LIG    1        4.543   4.191   1.028  0.00  0.00    +0.010 C 
ATOM      2  C   LIG    1        5.465   3.647   0.147  0.00  0.00    +0.010 C 
ENDROOT
BRANCH   1   5
ATOM      3  C   LIG    1        2.288   1.332   1.475  0.00  0.00    +0.029 A 
ATOM      4  C   LIG    1        3.259   2.128   0.979  0.00  0.00    +0.012 A 
ATOM      5  C   LIG    1        3.529   3.386   1.565  0.00  0.00    +0.002 A 
ATOM      6  C   LIG    1        2.796   3.849   2.682  0.00  0.00    +0.126 A 
ATOM      7  C   LIG    1        1.810   3.098   3.218  0.00  0.00    +0.058 A 
ATOM      8  C   LIG    1        1.510   1.785   2.635  0.00  0.00    +0.076 A 
BRANCH   6   9
ATOM      9  S   LIG    1        3.169   5.424   3.378  0.00  0.00    +0.110 S 
ATOM     10  O   LIG    1        4.586   5.526   3.416  0.00  0.00    -0.142 OA
ATOM     11  O   LIG    1        2.365   5.554   4.543  0.00  0.00    -0.142 OA
BRANCH   9  12
ATOM     12  O   LIG    1        2.683   6.478   2.394  0.00  0.00    -0.250 OA
ATOM     13  H   LIG    1        1.715   6.445   2.336  0.00  0.00    +0.245 HD
ENDBRANCH   9  12
ENDBRANCH   6   9
BRANCH   8  14
ATOM     14  N   LIG    1        0.556   1.029   3.139  0.00  0.00    -0.197 NA
ATOM     15  C   LIG    1        0.306  -0.086   2.630  0.00  0.00    +0.041 C 
ATOM     16  S   LIG    1       -0.004  -1.470   1.998  0.00  0.00    +0.021 S 
ENDBRANCH   8  14
ENDBRANCH   1   5
BRANCH   2  17
ATOM     17  C   LIG    1        6.479   4.451  -0.390  0.00  0.00    +0.002 A 
ATOM     18  C   LIG    1        6.364   5.858  -0.309  0.00  0.00    +0.012 A 
ATOM     19  C   LIG    1        7.328   6.659  -0.814  0.00  0.00    +0.029 A 
ATOM     20  C   LIG    1        8.499   6.053  -1.460  0.00  0.00    +0.076 A 
ATOM     21  C   LIG    1        8.588   4.589  -1.533  0.00  0.00    +0.058 A 
ATOM     22  C   LIG    1        7.596   3.840  -1.006  0.00  0.00    +0.126 A 
BRANCH  20  23
ATOM     23  N   LIG    1        9.452   6.809  -1.966  0.00  0.00    -0.197 NA
ATOM     24  C   LIG    1        9.364   8.054  -1.898  0.00  0.00    +0.041 C 
ATOM     25  S   LIG    1        9.255   9.602  -1.812  0.00  0.00    +0.021 S 
ENDBRANCH  20  23
BRANCH  22  26
ATOM     26  S   LIG    1        7.693   2.082  -1.088  0.00  0.00    +0.110 S 
ATOM     27  O   LIG    1        7.077   1.586   0.092  0.00  0.00    -0.142 OA
ATOM     28  O   LIG    1        9.033   1.766  -1.439  0.00  0.00    -0.142 OA
BRANCH  26  29
ATOM     29  O   LIG    1        6.821   1.637  -2.254  0.00  0.00    -0.250 OA
ATOM     30  H   LIG    1        7.206   1.955  -3.085  0.00  0.00    +0.245 HD
ENDBRANCH  26  29
ENDBRANCH  22  26
ENDBRANCH   2  17
TORSDOF 8
