REMARK  Name = ZINC05977595
REMARK                            x       y       z     vdW  Elec       q    Type
REMARK                         _______ _______ _______ _____ _____    ______ ____
ROOT
ATOM      1  C   LIG    1       -2.125   4.877  -4.195  0.00  0.00    +0.039 C 
ENDROOT
BRANCH   1   2
ATOM      2  C   LIG    1       -1.528   4.118  -3.039  0.00  0.00    -0.018 C 
ATOM      3  C   LIG    1       -0.240   3.942  -3.010  0.00  0.00    -0.020 C 
ATOM      4  C   LIG    1        0.449   3.191  -1.903  0.00  0.00    +0.063 C 
ATOM      5  C   LIG    1       -0.493   3.069  -0.702  0.00  0.00    +0.158 C 
ATOM      6  O   LIG    1       -1.771   2.622  -1.173  0.00  0.00    -0.340 OA
ATOM      7  C   LIG    1       -2.446   3.598  -1.969  0.00  0.00    +0.275 C 
BRANCH   5   8
ATOM      8  C   LIG    1        0.063   2.071   0.280  0.00  0.00    +0.033 C 
ATOM      9  C   LIG    1        0.465   2.320   1.525  0.00  0.00    +0.099 C 
ATOM     10  C   LIG    1        0.940   1.080   2.145  0.00  0.00    +0.335 C 
ATOM     11  O   LIG    1        0.829   0.060   1.274  0.00  0.00    -0.428 OA
ATOM     12  O   LIG    1        1.371   0.987   3.277  0.00  0.00    -0.246 OA
ATOM     13  C   LIG    1        0.273   0.594   0.039  0.00  0.00    +0.339 C 
BRANCH  13  14
ATOM     14  O   LIG    1       -0.974  -0.039  -0.253  0.00  0.00    -0.354 OA
ATOM     15  H   LIG    1       -0.906  -0.992  -0.402  0.00  0.00    +0.214 HD
ENDBRANCH  13  14
ENDBRANCH   5   8
BRANCH   7  16
ATOM     16  O   LIG    1       -2.861   4.683  -1.137  0.00  0.00    -0.364 OA
ATOM     17  H   LIG    1       -3.465   4.425  -0.427  0.00  0.00    +0.213 HD
ENDBRANCH   7  16
ENDBRANCH   1   2
BRANCH   1  18
ATOM     18  C   LIG    1       -2.594   3.889  -5.266  0.00  0.00    +0.031 C 
BRANCH  18  21
ATOM     19  C   LIG    1       -2.738   4.457  -7.636  0.00  0.00    -0.076 C 
ATOM     20  C   LIG    1       -1.702   3.393  -7.894  0.00  0.00    +0.039 C 
ATOM     21  C   LIG    1       -3.192   4.648  -6.422  0.00  0.00    -0.028 C 
BRANCH  19  22
ATOM     22  C   LIG    1       -3.252   5.300  -8.774  0.00  0.00    +0.034 C 
BRANCH  22  23
ATOM     23  C   LIG    1       -2.307   6.482  -9.000  0.00  0.00    +0.035 C 
BRANCH  23  26
ATOM     24  C   LIG    1       -3.837   8.633  -8.397  0.00  0.00    +0.039 C 
ATOM     25  C   LIG    1       -3.556   8.351  -9.851  0.00  0.00    -0.073 C 
ATOM     26  C   LIG    1       -2.821   7.325 -10.139  0.00  0.00    -0.065 C 
ATOM     27  C   LIG    1       -2.444   6.927 -11.536  0.00  0.00    -0.014 C 
ATOM     28  C   LIG    1       -2.564   5.408 -11.680  0.00  0.00    +0.015 C 
ATOM     29  C   LIG    1       -0.998   7.346 -11.810  0.00  0.00    +0.015 C 
ATOM     30  C   LIG    1       -3.375   7.606 -12.545  0.00  0.00    +0.011 C 
ATOM     31  C   LIG    1       -3.432   9.103 -12.216  0.00  0.00    +0.005 C 
ATOM     32  C   LIG    1       -4.147   9.276 -10.874  0.00  0.00    +0.030 C 
ENDBRANCH  23  26
ENDBRANCH  22  23
ENDBRANCH  19  22
ENDBRANCH  18  21
ENDBRANCH   1  18
TORSDOF 9
