REMARK  Name = ZINC06338807
REMARK                            x       y       z     vdW  Elec       q    Type
REMARK                         _______ _______ _______ _____ _____    ______ ____
ROOT
ATOM      1  C   LIG    1        5.920   1.490  -0.046  0.00  0.00    +0.188 C 
ATOM      2  O   LIG    1        6.377   0.361  -0.056  0.00  0.00    -0.287 OA
ENDROOT
BRANCH   1   5
ATOM      3  C   LIG    1        9.025   3.601  -0.063  0.00  0.00    +0.020 A 
ATOM      4  C   LIG    1        8.218   2.477  -0.062  0.00  0.00    +0.015 A 
ATOM      5  C   LIG    1        6.830   2.657  -0.048  0.00  0.00    +0.040 A 
ATOM      6  C   LIG    1        6.319   3.956  -0.042  0.00  0.00    +0.122 A 
ATOM      7  N   LIG    1        7.129   4.994  -0.039  0.00  0.00    -0.263 NA
ATOM      8  C   LIG    1        8.441   4.854  -0.051  0.00  0.00    +0.111 A 
ENDBRANCH   1   5
BRANCH   1   9
ATOM      9  C   LIG    1        4.520   1.686  -0.032  0.00  0.00    +0.052 C 
ATOM     10  C   LIG    1        3.686   0.617  -0.029  0.00  0.00    +0.012 C 
BRANCH  10  11
ATOM     11  C   LIG    1        2.235   0.820  -0.015  0.00  0.00    -0.018 A 
ATOM     12  C   LIG    1        1.317  -0.293  -0.012  0.00  0.00    +0.015 A 
ATOM     13  C   LIG    1        0.002  -0.004   0.002  0.00  0.00    +0.046 A 
ATOM     14  S   LIG    1       -0.022   1.777   0.012  0.00  0.00    -0.104 S 
ATOM     15  C   LIG    1        1.681   2.088  -0.003  0.00  0.00    +0.053 A 
ENDBRANCH  10  11
ENDBRANCH   1   9
TORSDOF 3
