REMARK  Name = ZINC07274819
REMARK                            x       y       z     vdW  Elec       q    Type
REMARK                         _______ _______ _______ _____ _____    ______ ____
ROOT
ATOM      1  C   LIG    1       -0.133   1.204   2.381  0.00  0.00    +0.136 A 
ATOM      2  C   LIG    1        1.009   0.419   2.420  0.00  0.00    +0.073 A 
ATOM      3  C   LIG    1        1.537   0.026   3.640  0.00  0.00    +0.075 A 
ATOM      4  C   LIG    1        0.918   0.420   4.824  0.00  0.00    +0.142 A 
ATOM      5  C   LIG    1       -0.223   1.204   4.780  0.00  0.00    +0.066 A 
ATOM      6  C   LIG    1       -0.745   1.600   3.561  0.00  0.00    +0.063 A 
ATOM      7 BR   LIG    1       -2.298   2.677   3.505  0.00  0.00    -0.046 Br
ENDROOT
BRANCH   3   8
ATOM      8  N   LIG    1        2.690  -0.767   3.683  0.00  0.00    -0.331 N 
ATOM      9  C   LIG    1        3.038  -1.263   2.344  0.00  0.00    +0.086 C 
ATOM     10  C   LIG    1        4.254  -2.187   2.445  0.00  0.00    -0.063 C 
ATOM     11  N   LIG    1        5.387  -1.448   3.034  0.00  0.00    +0.381 N 
ATOM     12  H   LIG    1        6.198  -2.074   3.107  0.00  0.00    -0.086 HD
ATOM     13  H   LIG    1        5.622  -0.651   2.431  0.00  0.00    -0.086 HD
ATOM     14  C   LIG    1        5.030  -0.954   4.378  0.00  0.00    -0.063 C 
ATOM     15  C   LIG    1        3.814  -0.030   4.277  0.00  0.00    +0.086 C 
ENDBRANCH   3   8
BRANCH   1  17
ATOM     16  C   LIG    1        0.032   1.151   0.009  0.00  0.00    +0.277 C 
ATOM     17  O   LIG    1       -0.652   1.590   1.184  0.00  0.00    -0.494 OA
ENDBRANCH   1  17
BRANCH   4  18
ATOM     18  O   LIG    1        1.433   0.035   6.023  0.00  0.00    -0.493 OA
ATOM     19  C   LIG    1        0.746   0.476   7.197  0.00  0.00    +0.277 C 
ENDBRANCH   4  18
TORSDOF 3
