REMARK  Name = ZINC05891528
REMARK                            x       y       z     vdW  Elec       q    Type
REMARK                         _______ _______ _______ _____ _____    ______ ____
ROOT
ATOM      1  C   LIG    1       -2.556   1.503   1.073  0.00  0.00    +0.008 C 
ATOM      2  C   LIG    1       -1.222   2.203   1.016  0.00  0.00    +0.001 C 
ATOM      3  C   LIG    1       -1.125   3.553   1.226  0.00  0.00    +0.032 C 
ATOM      4  C   LIG    1        0.117   4.173   1.174  0.00  0.00    +0.088 C 
ATOM      5  N   LIG    1        1.217   3.500   0.921  0.00  0.00    -0.301 NA
ATOM      6  H   LIG    1        1.836   3.646   1.718  0.00  0.00    +0.123 HD
ATOM      7  C   LIG    1        1.188   2.185   0.703  0.00  0.00    +0.130 C 
ATOM      8  N   LIG    1        2.367   1.521   0.442  0.00  0.00    -0.274 NA
ATOM      9  H   LIG    1        2.990   1.661   1.237  0.00  0.00    +0.126 HD
ATOM     10  C   LIG    1        2.247   0.186   0.232  0.00  0.00    +0.194 C 
ATOM     11  N   LIG    1        1.108  -0.501   0.261  0.00  0.00    -0.274 NA
ATOM     12  H   LIG    1        1.953   0.035   0.244  0.00  0.00    +0.126 HD
ATOM     13  C   LIG    1       -0.049   0.095   0.507  0.00  0.00    +0.127 C 
ATOM     14  C   LIG    1       -0.048   1.493   0.742  0.00  0.00    +0.055 C 
ENDROOT
BRANCH  10  15
ATOM     15  N   LIG    1        3.422  -0.492  -0.030  0.00  0.00    -0.303 NA
ATOM     16  H   LIG    1        4.264  -0.011  -0.056  0.00  0.00    +0.121 HD
ATOM     17  H   LIG    1        3.404  -1.449  -0.189  0.00  0.00    +0.121 HD
ENDBRANCH  10  15
BRANCH  13  18
ATOM     18  N   LIG    1       -1.224  -0.625   0.534  0.00  0.00    -0.315 NA
ATOM     19  H   LIG    1       -1.888  -0.443   1.216  0.00  0.00    +0.120 HD
ATOM     20  H   LIG    1       -1.385  -1.313  -0.130  0.00  0.00    +0.120 HD
ENDBRANCH  13  18
BRANCH   3  21
ATOM     21  C   LIG    1       -2.361   4.363   1.520  0.00  0.00    +0.160 C 
BRANCH  21  22
ATOM     22  O   LIG    1       -2.000   5.733   1.706  0.00  0.00    -0.395 OA
ATOM     23  H   LIG    1       -2.748   6.314   1.899  0.00  0.00    +0.209 HD
ENDBRANCH  21  22
ENDBRANCH   3  21
TORSDOF 4
