REMARK  Name = ZINC08452867
REMARK                            x       y       z     vdW  Elec       q    Type
REMARK                         _______ _______ _______ _____ _____    ______ ____
ROOT
ATOM      1  N   LIG    1       -1.068  -0.627   0.026  0.00  0.00    -0.225 NA
ATOM      2  C   LIG    1        0.003   0.139   0.024  0.00  0.00    +0.173 C 
ATOM      3  N   LIG    1        0.083   1.500   0.231  0.00  0.00    -0.214 N 
ATOM      4  C   LIG    1        1.252   2.119   0.195  0.00  0.00    +0.263 C 
ATOM      5  C   LIG    1        2.441   1.287  -0.074  0.00  0.00    +0.078 C 
ATOM      6  C   LIG    1        3.744   1.653  -0.167  0.00  0.00    +0.028 C 
ATOM      7  O   LIG    1        1.342   3.319   0.376  0.00  0.00    -0.269 OA
ATOM      8  S   LIG    1        1.703  -0.332  -0.247  0.00  0.00    -0.048 S 
ENDROOT
BRANCH   1  12
ATOM      9  C   LIG    1       -0.708  -4.680  -0.663  0.00  0.00    +0.059 A 
ATOM     10  C   LIG    1       -1.519  -4.216   0.380  0.00  0.00    +0.017 A 
ATOM     11  C   LIG    1       -1.638  -2.877   0.608  0.00  0.00    +0.028 A 
ATOM     12  C   LIG    1       -0.949  -1.965  -0.201  0.00  0.00    +0.067 A 
ATOM     13  C   LIG    1       -0.141  -2.429  -1.247  0.00  0.00    +0.028 A 
ATOM     14  C   LIG    1       -0.018  -3.768  -1.472  0.00  0.00    +0.017 A 
BRANCH   9  15
ATOM     15  C   LIG    1       -0.580  -6.125  -0.909  0.00  0.00    +0.339 C 
ATOM     16  O   LIG    1       -1.178  -6.917  -0.207  0.00  0.00    -0.245 OA
BRANCH  15  17
ATOM     17  O   LIG    1        0.202  -6.572  -1.913  0.00  0.00    -0.461 OA
BRANCH  17  19
ATOM     18  C   LIG    1        1.207  -8.323  -3.274  0.00  0.00    +0.048 C 
ATOM     19  C   LIG    1        0.281  -8.010  -2.097  0.00  0.00    +0.229 C 
ENDBRANCH  17  19
ENDBRANCH  15  17
ENDBRANCH   9  15
ENDBRANCH   1  12
BRANCH   3  20
ATOM     20  C   LIG    1       -1.080   2.232   0.476  0.00  0.00    +0.044 A 
ATOM     21  C   LIG    1       -1.298   2.789   1.732  0.00  0.00    +0.025 A 
ATOM     22  C   LIG    1       -2.441   3.517   1.976  0.00  0.00    +0.017 A 
ATOM     23  C   LIG    1       -3.388   3.686   0.962  0.00  0.00    +0.059 A 
ATOM     24  C   LIG    1       -3.169   3.120  -0.297  0.00  0.00    +0.017 A 
ATOM     25  C   LIG    1       -2.021   2.398  -0.535  0.00  0.00    +0.025 A 
BRANCH  23  26
ATOM     26  C   LIG    1       -4.617   4.460   1.221  0.00  0.00    +0.339 C 
ATOM     27  O   LIG    1       -5.440   4.606   0.339  0.00  0.00    -0.245 OA
BRANCH  26  28
ATOM     28  O   LIG    1       -4.827   5.005   2.435  0.00  0.00    -0.461 OA
BRANCH  28  29
ATOM     29  C   LIG    1       -6.058   5.753   2.618  0.00  0.00    +0.229 C 
ATOM     30  C   LIG    1       -6.120   6.292   4.049  0.00  0.00    +0.048 C 
ENDBRANCH  28  29
ENDBRANCH  26  28
ENDBRANCH  23  26
ENDBRANCH   3  20
BRANCH   6  31
ATOM     31  C   LIG    1        4.790   0.626  -0.279  0.00  0.00    -0.024 A 
ATOM     32  C   LIG    1        4.563  -0.665   0.210  0.00  0.00    +0.008 A 
ATOM     33  C   LIG    1        5.548  -1.624   0.097  0.00  0.00    +0.005 A 
ATOM     34  C   LIG    1        6.761  -1.309  -0.490  0.00  0.00    -0.042 A 
ATOM     35  C   LIG    1        6.995  -0.033  -0.972  0.00  0.00    +0.005 A 
ATOM     36  C   LIG    1        6.020   0.936  -0.871  0.00  0.00    +0.008 A 
BRANCH  34  37
ATOM     37  C   LIG    1        7.833  -2.362  -0.604  0.00  0.00    -0.013 C 
ATOM     38  C   LIG    1        8.180  -2.578  -2.079  0.00  0.00    +0.015 C 
ATOM     39  C   LIG    1        7.327  -3.674  -0.001  0.00  0.00    +0.015 C 
ATOM     40  C   LIG    1        9.082  -1.902   0.151  0.00  0.00    +0.015 C 
ENDBRANCH  34  37
ENDBRANCH   6  31
TORSDOF 10
