REMARK  Name = ZINC06706909
REMARK                            x       y       z     vdW  Elec       q    Type
REMARK                         _______ _______ _______ _____ _____    ______ ____
ROOT
ATOM      1  C   LIG    1       -1.201  -0.638   0.010  0.00  0.00    +0.136 A 
ATOM      2  C   LIG    1       -2.374   0.102   0.019  0.00  0.00    +0.079 A 
ATOM      3  C   LIG    1       -3.597  -0.542   0.028  0.00  0.00    +0.153 A 
ATOM      4  C   LIG    1       -3.651  -1.928   0.028  0.00  0.00    +0.148 A 
ATOM      5  C   LIG    1       -2.478  -2.668   0.018  0.00  0.00    +0.066 A 
ATOM      6  C   LIG    1       -1.255  -2.024   0.003  0.00  0.00    +0.063 A 
ATOM      7 BR   LIG    1        0.344  -3.033  -0.018  0.00  0.00    -0.046 Br
ENDROOT
BRANCH   3   8
ATOM      8  S   LIG    1       -5.087   0.398   0.041  0.00  0.00    +0.076 S 
ATOM      9  O   LIG    1       -4.705   1.766   0.012  0.00  0.00    -0.150 OA
ATOM     10  O   LIG    1       -5.900  -0.145   1.072  0.00  0.00    -0.150 OA
BRANCH   8  11
ATOM     11  N   LIG    1       -5.869   0.095  -1.387  0.00  0.00    -0.215 N 
ATOM     12  H   LIG    1       -5.995   0.809  -2.032  0.00  0.00    +0.174 HD
BRANCH  11  13
ATOM     13  C   LIG    1       -6.347  -1.188  -1.663  0.00  0.00    +0.066 A 
ATOM     14  C   LIG    1       -6.138  -1.767  -2.913  0.00  0.00    +0.027 A 
ATOM     15  C   LIG    1       -6.631  -3.041  -3.139  0.00  0.00    +0.022 A 
ATOM     16  C   LIG    1       -7.309  -3.692  -2.125  0.00  0.00    +0.111 A 
ATOM     17  N   LIG    1       -7.491  -3.117  -0.953  0.00  0.00    -0.261 NA
ATOM     18  C   LIG    1       -7.033  -1.909  -0.694  0.00  0.00    +0.135 A 
ENDBRANCH  11  13
ENDBRANCH   8  11
ENDBRANCH   3   8
BRANCH   1  20
ATOM     19  C   LIG    1       -0.017   1.425   0.010  0.00  0.00    +0.277 C 
ATOM     20  O   LIG    1        0.002  -0.004   0.002  0.00  0.00    -0.494 OA
ENDBRANCH   1  20
BRANCH   4  21
ATOM     21  O   LIG    1       -4.854  -2.562   0.037  0.00  0.00    -0.493 OA
ATOM     22  C   LIG    1       -4.835  -3.990   0.035  0.00  0.00    +0.277 C 
ENDBRANCH   4  21
TORSDOF 5
