REMARK  Name = ZINC06346108
REMARK                            x       y       z     vdW  Elec       q    Type
REMARK                         _______ _______ _______ _____ _____    ______ ____
ROOT
ATOM      1  C   LIG    1        6.065  -0.666  -0.062  0.00  0.00    +0.165 A 
ATOM      2  N   LIG    1        7.291  -0.178  -0.071  0.00  0.00    -0.223 NA
ATOM      3  C   LIG    1        8.349  -0.977  -0.087  0.00  0.00    +0.098 A 
ATOM      4  C   LIG    1        8.166  -2.332  -0.093  0.00  0.00    +0.078 A 
ATOM      5  S   LIG    1        6.380  -2.425  -0.068  0.00  0.00    -0.060 S 
ENDROOT
BRANCH   3   6
ATOM      6  C   LIG    1        9.716  -0.406  -0.096  0.00  0.00    +0.090 A 
ATOM      7  C   LIG    1        9.888   0.978  -0.090  0.00  0.00    +0.030 A 
ATOM      8  C   LIG    1       11.171   1.495  -0.099  0.00  0.00    +0.004 A 
ATOM      9  C   LIG    1       12.242   0.612  -0.114  0.00  0.00    +0.020 A 
ATOM     10  C   LIG    1       12.000  -0.748  -0.119  0.00  0.00    +0.111 A 
ATOM     11  N   LIG    1       10.768  -1.216  -0.106  0.00  0.00    -0.253 NA
ENDBRANCH   3   6
BRANCH   1  13
ATOM     12  C   LIG    1        3.695  -0.684  -0.038  0.00  0.00    +0.250 C 
ATOM     13  N   LIG    1        4.851   0.008  -0.046  0.00  0.00    -0.261 N 
ATOM     14  H   LIG    1        4.836   0.978  -0.040  0.00  0.00    +0.157 HD
ATOM     15  O   LIG    1        3.715  -1.900  -0.046  0.00  0.00    -0.270 OA
BRANCH  12  19
ATOM     16  C   LIG    1       -0.017   1.379   0.010  0.00  0.00    +0.000 A 
ATOM     17  C   LIG    1        1.168   2.094   0.002  0.00  0.00    +0.001 A 
ATOM     18  C   LIG    1        2.377   1.430  -0.013  0.00  0.00    +0.013 A 
ATOM     19  C   LIG    1        2.404   0.034  -0.021  0.00  0.00    +0.037 A 
ATOM     20  C   LIG    1        1.204  -0.681  -0.014  0.00  0.00    +0.013 A 
ATOM     21  C   LIG    1        0.002  -0.004   0.002  0.00  0.00    +0.001 A 
ENDBRANCH  12  19
ENDBRANCH   1  13
TORSDOF 3
