REMARK  Name = ZINC06881817
REMARK                            x       y       z     vdW  Elec       q    Type
REMARK                         _______ _______ _______ _____ _____    ______ ____
ROOT
ATOM      1  C   LIG    1        0.578  -0.109   4.076  0.00  0.00    +0.205 A 
ATOM      2  N   LIG    1        1.327   1.003   4.059  0.00  0.00    -0.108 NA
ATOM      3  N   LIG    1        0.934   1.713   3.056  0.00  0.00    -0.046 NA
ATOM      4  N   LIG    1       -0.020   1.094   2.454  0.00  0.00    -0.162 N 
ATOM      5  N   LIG    1       -0.258  -0.017   3.062  0.00  0.00    -0.130 NA
ENDROOT
BRANCH   1  12
ATOM      6  C   LIG    1       -0.187  -2.318   4.946  0.00  0.00    +0.013 A 
ATOM      7  C   LIG    1       -0.097  -3.353   5.853  0.00  0.00    +0.021 A 
ATOM      8  C   LIG    1        0.836  -3.301   6.875  0.00  0.00    +0.041 A 
ATOM      9 CL   LIG    1        0.941  -4.604   8.017  0.00  0.00    -0.084 Cl
ATOM     10  C   LIG    1        1.685  -2.214   6.989  0.00  0.00    +0.021 A 
ATOM     11  C   LIG    1        1.605  -1.176   6.083  0.00  0.00    +0.013 A 
ATOM     12  C   LIG    1        0.668  -1.223   5.053  0.00  0.00    +0.023 A 
ENDBRANCH   1  12
BRANCH   4  13
ATOM     13  C   LIG    1       -0.729   1.579   1.267  0.00  0.00    +0.183 C 
BRANCH  13  14
ATOM     14  C   LIG    1       -0.013   1.086   0.008  0.00  0.00    +0.143 C 
BRANCH  14  15
ATOM     15  C   LIG    1       -0.725   1.573  -1.185  0.00  0.00    +0.064 C 
ATOM     16  N   LIG    1       -1.274   1.950  -2.105  0.00  0.00    -0.197 NA
ENDBRANCH  14  15
ENDBRANCH  13  14
ENDBRANCH   4  13
TORSDOF 4
