REMARK  Name = ZINC08578607
REMARK                            x       y       z     vdW  Elec       q    Type
REMARK                         _______ _______ _______ _____ _____    ______ ____
ROOT
ATOM      1  C   LIG    1        3.695  -0.684  -0.038  0.00  0.00    +0.051 A 
ATOM      2  C   LIG    1        4.851   0.038  -0.041  0.00  0.00    +0.077 A 
ATOM      3  C   LIG    1        6.096  -0.622  -0.057  0.00  0.00    +0.190 A 
ATOM      4  O   LIG    1        7.142   0.007  -0.061  0.00  0.00    -0.287 OA
ATOM      5  C   LIG    1        6.097  -2.096  -0.071  0.00  0.00    +0.045 A 
ATOM      6  C   LIG    1        7.289  -2.821  -0.087  0.00  0.00    +0.014 A 
ATOM      7  C   LIG    1        7.252  -4.187  -0.100  0.00  0.00    +0.001 A 
ATOM      8  C   LIG    1        6.037  -4.859  -0.096  0.00  0.00    +0.002 A 
ATOM      9  C   LIG    1        4.849  -4.163  -0.081  0.00  0.00    +0.026 A 
ATOM     10  C   LIG    1        4.864  -2.771  -0.067  0.00  0.00    +0.051 A 
ATOM     11  N   LIG    1        3.691  -2.048  -0.045  0.00  0.00    -0.354 N 
ATOM     12  H   LIG    1        2.844  -2.520  -0.039  0.00  0.00    +0.166 HD
ENDROOT
BRANCH   1  16
ATOM     13  C   LIG    1       -0.017   1.379   0.010  0.00  0.00    +0.000 A 
ATOM     14  C   LIG    1        1.168   2.094   0.002  0.00  0.00    +0.001 A 
ATOM     15  C   LIG    1        2.377   1.430  -0.013  0.00  0.00    +0.010 A 
ATOM     16  C   LIG    1        2.404   0.034  -0.021  0.00  0.00    -0.002 A 
ATOM     17  C   LIG    1        1.204  -0.681  -0.013  0.00  0.00    +0.010 A 
ATOM     18  C   LIG    1        0.002  -0.004   0.002  0.00  0.00    +0.001 A 
ENDBRANCH   1  16
TORSDOF 1
