REMARK  Name = ZINC08299671
REMARK                            x       y       z     vdW  Elec       q    Type
REMARK                         _______ _______ _______ _____ _____    ______ ____
ROOT
ATOM      1  C   LIG    1       -7.150   5.513   3.507  0.00  0.00    +0.109 C 
ATOM      2  C   LIG    1       -7.732   4.880   2.270  0.00  0.00    +0.213 C 
ATOM      3  N   LIG    1       -6.925   4.251   1.392  0.00  0.00    -0.286 N 
ATOM      4  C   LIG    1       -5.463   4.108   1.518  0.00  0.00    +0.131 C 
ATOM      5  C   LIG    1       -4.958   3.905   0.068  0.00  0.00    +0.093 C 
ATOM      6  C   LIG    1       -6.093   3.038  -0.539  0.00  0.00    +0.057 C 
ATOM      7  C   LIG    1       -7.358   3.594   0.150  0.00  0.00    +0.186 C 
ATOM      8  O   LIG    1       -8.925   4.936   2.064  0.00  0.00    -0.276 OA
ENDROOT
BRANCH   5   9
ATOM      9  N   LIG    1       -3.683   3.185   0.052  0.00  0.00    -0.307 N 
ATOM     10  H   LIG    1       -3.673   2.215   0.047  0.00  0.00    +0.149 HD
ATOM     11  C   LIG    1       -2.522   3.870   0.045  0.00  0.00    +0.244 C 
ATOM     12  O   LIG    1       -2.534   5.085   0.052  0.00  0.00    -0.270 OA
BRANCH  11  13
ATOM     13  C   LIG    1       -1.234   3.143   0.029  0.00  0.00    +0.037 A 
ATOM     14  C   LIG    1       -1.217   1.748   0.017  0.00  0.00    +0.013 A 
ATOM     15  C   LIG    1       -0.013   1.076   0.008  0.00  0.00    +0.001 A 
ATOM     16  C   LIG    1        1.177   1.782   0.000  0.00  0.00    +0.000 A 
ATOM     17  C   LIG    1        1.167   3.166   0.008  0.00  0.00    +0.001 A 
ATOM     18  C   LIG    1       -0.031   3.850   0.022  0.00  0.00    +0.013 A 
ENDBRANCH  11  13
ENDBRANCH   5   9
BRANCH   7  19
ATOM     19  C   LIG    1       -8.304   2.465   0.470  0.00  0.00    +0.328 C 
ATOM     20  O   LIG    1       -8.351   2.015   1.591  0.00  0.00    -0.249 OA
BRANCH  19  21
ATOM     21  O   LIG    1       -9.096   1.960  -0.489  0.00  0.00    -0.467 OA
ATOM     22  C   LIG    1       -9.982   0.875  -0.109  0.00  0.00    +0.280 C 
ENDBRANCH  19  21
ENDBRANCH   7  19
TORSDOF 4
