REMARK  Name = ZINC08214714
REMARK                            x       y       z     vdW  Elec       q    Type
REMARK                         _______ _______ _______ _____ _____    ______ ____
ROOT
ATOM      1  C   LIG    1       -2.084  -4.191  -3.465  0.00  0.00    +0.087 C 
ATOM      2  C   LIG    1       -2.515  -3.122  -2.453  0.00  0.00    +0.050 C 
ATOM      3  C   LIG    1       -1.277  -2.361  -1.979  0.00  0.00    +0.113 C 
ATOM      4  C   LIG    1       -0.474  -1.874  -3.156  0.00  0.00    -0.005 A 
ATOM      5  C   LIG    1        0.414  -0.827  -2.974  0.00  0.00    +0.019 A 
ATOM      6  C   LIG    1        1.168  -0.360  -4.033  0.00  0.00    +0.055 A 
ATOM      7  C   LIG    1        1.039  -0.935  -5.284  0.00  0.00    +0.014 A 
ATOM      8  C   LIG    1        0.154  -1.977  -5.474  0.00  0.00    +0.024 A 
ATOM      9  C   LIG    1       -0.606  -2.448  -4.410  0.00  0.00    +0.045 A 
ATOM     10  N   LIG    1       -1.505  -3.502  -4.626  0.00  0.00    -0.234 N 
ATOM     11  C   LIG    1       -1.832  -3.878  -5.879  0.00  0.00    +0.407 C 
ATOM     12  O   LIG    1       -2.510  -4.870  -6.058  0.00  0.00    -0.226 OA
ENDROOT
BRANCH   6  13
ATOM     13  C   LIG    1        2.132   0.779  -3.825  0.00  0.00    +0.417 C 
ATOM     14  F   LIG    1        3.084   0.415  -2.867  0.00  0.00    -0.166 F 
ATOM     15  F   LIG    1        1.433   1.907  -3.382  0.00  0.00    -0.166 F 
ATOM     16  F   LIG    1        2.775   1.073  -5.032  0.00  0.00    -0.166 F 
ENDBRANCH   6  13
BRANCH   3  17
ATOM     17  N   LIG    1       -1.695  -1.214  -1.170  0.00  0.00    -0.256 N 
ATOM     18  C   LIG    1       -2.463  -0.249  -1.714  0.00  0.00    +0.403 C 
ATOM     19  O   LIG    1       -2.809  -0.331  -2.876  0.00  0.00    -0.226 OA
BRANCH  18  20
ATOM     20  O   LIG    1       -2.846   0.806  -0.970  0.00  0.00    -0.454 OA
ATOM     21  C   LIG    1       -3.673   1.806  -1.622  0.00  0.00    +0.282 C 
ENDBRANCH  18  20
BRANCH  17  22
ATOM     22  C   LIG    1       -1.277  -1.114   0.231  0.00  0.00    +0.146 C 
BRANCH  22  23
ATOM     23  C   LIG    1        0.033  -0.375   0.314  0.00  0.00    -0.029 A 
ATOM     24  C   LIG    1        0.043   1.000   0.454  0.00  0.00    +0.017 A 
ATOM     25  C   LIG    1        1.246   1.678   0.531  0.00  0.00    +0.056 A 
ATOM     26  C   LIG    1        2.438   0.981   0.465  0.00  0.00    +0.024 A 
ATOM     27  C   LIG    1        2.427  -0.394   0.325  0.00  0.00    +0.056 A 
ATOM     28  C   LIG    1        1.225  -1.072   0.250  0.00  0.00    +0.017 A 
BRANCH  25  29
ATOM     29  C   LIG    1        1.257   3.177   0.683  0.00  0.00    +0.417 C 
ATOM     30  F   LIG    1        0.122   3.717   0.069  0.00  0.00    -0.166 F 
ATOM     31  F   LIG    1        2.406   3.699   0.080  0.00  0.00    -0.166 F 
ATOM     32  F   LIG    1        1.252   3.507   2.043  0.00  0.00    -0.166 F 
ENDBRANCH  25  29
BRANCH  27  33
ATOM     33  C   LIG    1        3.727  -1.154   0.256  0.00  0.00    +0.417 C 
ATOM     34  F   LIG    1        3.547  -2.436   0.789  0.00  0.00    -0.166 F 
ATOM     35  F   LIG    1        4.704  -0.476   0.994  0.00  0.00    -0.166 F 
ATOM     36  F   LIG    1        4.137  -1.257  -1.077  0.00  0.00    -0.166 F 
ENDBRANCH  27  33
ENDBRANCH  22  23
ENDBRANCH  17  22
ENDBRANCH   3  17
BRANCH   1  38
ATOM     37  C   LIG    1       -3.952  -5.650  -2.673  0.00  0.00    +0.006 C 
ATOM     38  C   LIG    1       -3.299  -5.012  -3.901  0.00  0.00    +0.020 C 
ENDBRANCH   1  38
BRANCH  11  39
ATOM     39  O   LIG    1       -1.408  -3.153  -6.931  0.00  0.00    -0.450 OA
BRANCH  39  40
ATOM     40  C   LIG    1       -1.799  -3.616  -8.251  0.00  0.00    +0.230 C 
ATOM     41  C   LIG    1       -1.228  -2.673  -9.312  0.00  0.00    +0.048 C 
ENDBRANCH  39  40
ENDBRANCH  11  39
TORSDOF 10
