REMARK  Name = ZINC06643273
REMARK                            x       y       z     vdW  Elec       q    Type
REMARK                         _______ _______ _______ _____ _____    ______ ____
ROOT
ATOM      1  C   LIG    1        2.394   0.014  -0.021  0.00  0.00    +0.122 C 
ATOM      2  C   LIG    1        1.194  -0.696  -0.013  0.00  0.00    +0.047 C 
ATOM      3  C   LIG    1        0.002  -0.004   0.002  0.00  0.00    +0.085 C 
ATOM      4  N   LIG    1       -0.086   1.354   0.010  0.00  0.00    -0.301 NA
ATOM      5  H   LIG    1       -0.990   1.841   0.021  0.00  0.00    +0.123 HD
ATOM      6  C   LIG    1        1.101   2.029   0.002  0.00  0.00    +0.121 C 
ATOM      7  C   LIG    1        2.341   1.402  -0.013  0.00  0.00    +0.066 C 
ENDROOT
BRANCH   6   8
ATOM      8  N   LIG    1        1.032   3.417   0.010  0.00  0.00    -0.315 NA
ATOM      9  H   LIG    1        1.847   3.944   0.005  0.00  0.00    +0.120 HD
ATOM     10  H   LIG    1        0.169   3.860   0.020  0.00  0.00    +0.120 HD
ENDBRANCH   6   8
BRANCH   1  12
ATOM     11  C   LIG    1        3.546  -2.064  -0.044  0.00  0.00    +0.194 C 
ATOM     12  O   LIG    1        3.586  -0.635  -0.036  0.00  0.00    -0.380 OA
ENDBRANCH   1  12
TORSDOF 2
