REMARK  Name = ZINC08580818
REMARK                            x       y       z     vdW  Elec       q    Type
REMARK                         _______ _______ _______ _____ _____    ______ ____
ROOT
ATOM      1  C   LIG    1       -0.017   1.375   0.010  0.00  0.00    +0.001 A 
ATOM      2  C   LIG    1        1.168   2.097   0.002  0.00  0.00    +0.001 A 
ATOM      3  C   LIG    1        2.385   1.450  -0.013  0.00  0.00    +0.014 A 
ATOM      4  C   LIG    1        2.425   0.057  -0.021  0.00  0.00    +0.047 A 
ATOM      5  C   LIG    1        1.220  -0.675  -0.013  0.00  0.00    -0.004 A 
ATOM      6  C   LIG    1        1.294  -2.149  -0.022  0.00  0.00    +0.006 A 
ATOM      7  C   LIG    1        0.133  -2.921  -0.016  0.00  0.00    +0.010 A 
ATOM      8  C   LIG    1        0.225  -4.296  -0.025  0.00  0.00    +0.001 A 
ATOM      9  C   LIG    1        1.466  -4.912  -0.041  0.00  0.00    +0.002 A 
ATOM     10  C   LIG    1        2.622  -4.161  -0.048  0.00  0.00    +0.026 A 
ATOM     11  C   LIG    1        2.551  -2.771  -0.039  0.00  0.00    +0.050 A 
ATOM     12  N   LIG    1        3.714  -2.019  -0.046  0.00  0.00    -0.322 N 
ATOM     13  H   LIG    1        4.569  -2.479  -0.057  0.00  0.00    +0.169 HD
ATOM     14  C   LIG    1        3.700  -0.675  -0.038  0.00  0.00    +0.257 A 
ATOM     15  O   LIG    1        4.750  -0.059  -0.045  0.00  0.00    -0.267 OA
ATOM     16  C   LIG    1        0.002  -0.004   0.002  0.00  0.00    +0.009 A 
ENDROOT
TORSDOF 0
