REMARK  Name = ZINC08287240
REMARK                            x       y       z     vdW  Elec       q    Type
REMARK                         _______ _______ _______ _____ _____    ______ ____
ROOT
ATOM      1  N   LIG    1       -4.552   5.019   0.074  0.00  0.00    -0.280 N 
ATOM      2  H   LIG    1       -4.193   5.917   0.151  0.00  0.00    +0.155 HD
ATOM      3  C   LIG    1       -3.719   3.959   0.058  0.00  0.00    +0.269 C 
ATOM      4  O   LIG    1       -4.171   2.830   0.046  0.00  0.00    -0.268 OA
ENDROOT
BRANCH   3   5
ATOM      5  C   LIG    1       -2.260   4.169   0.053  0.00  0.00    +0.155 A 
ATOM      6  C   LIG    1       -1.222   3.130   0.036  0.00  0.00    +0.032 A 
ATOM      7  C   LIG    1       -1.208   1.738   0.015  0.00  0.00    +0.012 A 
ATOM      8  C   LIG    1       -0.012   1.076   0.008  0.00  0.00    +0.001 A 
ATOM      9  C   LIG    1        1.184   1.782   0.010  0.00  0.00    +0.002 A 
ATOM     10  C   LIG    1        1.193   3.148   0.025  0.00  0.00    +0.028 A 
ATOM     11  C   LIG    1       -0.009   3.847   0.039  0.00  0.00    +0.066 A 
ATOM     12  N   LIG    1       -0.354   5.174   0.056  0.00  0.00    -0.276 N 
ATOM     13  H   LIG    1        0.303   5.928   0.061  0.00  0.00    +0.189 HD
ATOM     14  N   LIG    1       -1.629   5.323   0.063  0.00  0.00    -0.168 NA
ENDBRANCH   3   5
BRANCH   1  18
ATOM     15  C   LIG    1       -8.671   4.437  -0.203  0.00  0.00    +0.120 A 
ATOM     16  C   LIG    1       -7.886   3.520   0.479  0.00  0.00    +0.047 A 
ATOM     17  C   LIG    1       -6.521   3.712   0.571  0.00  0.00    +0.027 A 
ATOM     18  C   LIG    1       -5.935   4.823  -0.019  0.00  0.00    +0.034 A 
ATOM     19  C   LIG    1       -6.723   5.744  -0.698  0.00  0.00    +0.027 A 
ATOM     20  C   LIG    1       -8.086   5.548  -0.794  0.00  0.00    +0.047 A 
BRANCH  15  22
ATOM     21  C   LIG    1      -10.762   5.232  -1.011  0.00  0.00    +0.277 C 
ATOM     22  O   LIG    1      -10.014   4.248  -0.293  0.00  0.00    -0.495 OA
ENDBRANCH  15  22
ENDBRANCH   1  18
TORSDOF 3
