REMARK  Name = ZINC06310440
REMARK                            x       y       z     vdW  Elec       q    Type
REMARK                         _______ _______ _______ _____ _____    ______ ____
ROOT
ATOM      1  N   LIG    1        0.727   8.469   1.024  0.00  0.00    -0.291 N 
ATOM      2  C   LIG    1       -0.478   8.164   1.778  0.00  0.00    +0.203 C 
ATOM      3  C   LIG    1       -1.089   6.867   1.359  0.00  0.00    +0.234 C 
ATOM      4  N   LIG    1       -0.584   6.063   0.421  0.00  0.00    -0.276 N 
ATOM      5  C   LIG    1        0.684   6.325  -0.258  0.00  0.00    +0.167 C 
ATOM      6  C   LIG    1        1.686   5.218   0.097  0.00  0.00    +0.069 C 
ATOM      7  C   LIG    1        0.995   3.883  -0.022  0.00  0.00    -0.015 A 
ATOM      8  C   LIG    1        1.594   2.568  -0.125  0.00  0.00    +0.003 A 
ATOM      9  C   LIG    1        2.922   2.131  -0.149  0.00  0.00    +0.010 A 
ATOM     10  C   LIG    1        3.128   0.778  -0.260  0.00  0.00    +0.001 A 
ATOM     11  C   LIG    1        2.078  -0.122  -0.343  0.00  0.00    +0.002 A 
ATOM     12  C   LIG    1        0.754   0.283  -0.321  0.00  0.00    +0.026 A 
ATOM     13  C   LIG    1        0.515   1.651  -0.210  0.00  0.00    +0.047 A 
ATOM     14  N   LIG    1       -0.640   2.377  -0.153  0.00  0.00    -0.356 N 
ATOM     15  H   LIG    1       -1.535   2.005  -0.186  0.00  0.00    +0.166 HD
ATOM     16  C   LIG    1       -0.344   3.710  -0.047  0.00  0.00    +0.046 A 
ATOM     17  C   LIG    1       -1.335   4.849   0.035  0.00  0.00    +0.154 C 
ATOM     18  O   LIG    1       -2.112   6.520   1.909  0.00  0.00    -0.274 OA
ATOM     19  C   LIG    1        1.255   7.657   0.111  0.00  0.00    +0.237 C 
ATOM     20  O   LIG    1        2.263   8.020  -0.457  0.00  0.00    -0.274 OA
ENDROOT
BRANCH  17  21
ATOM     21  C   LIG    1       -1.990   5.058  -1.305  0.00  0.00    -0.021 A 
ATOM     22  C   LIG    1       -3.369   5.075  -1.404  0.00  0.00    +0.009 A 
ATOM     23  C   LIG    1       -3.973   5.271  -2.631  0.00  0.00    +0.046 A 
ATOM     24  C   LIG    1       -3.194   5.439  -3.767  0.00  0.00    +0.120 A 
ATOM     25  C   LIG    1       -1.811   5.416  -3.666  0.00  0.00    +0.046 A 
ATOM     26  C   LIG    1       -1.212   5.225  -2.436  0.00  0.00    +0.009 A 
BRANCH  24  27
ATOM     27  O   LIG    1       -3.785   5.626  -4.976  0.00  0.00    -0.495 OA
ATOM     28  C   LIG    1       -5.214   5.639  -5.005  0.00  0.00    +0.277 C 
ENDBRANCH  24  27
ENDBRANCH  17  21
BRANCH   1  29
ATOM     29  C   LIG    1        1.400   9.744   1.284  0.00  0.00    +0.108 C 
BRANCH  29  30
ATOM     30  C   LIG    1        2.433   9.558   2.397  0.00  0.00    +0.019 C 
BRANCH  30  32
ATOM     31  C   LIG    1        4.169  10.703   3.782  0.00  0.00    +0.004 C 
ATOM     32  C   LIG    1        3.135  10.890   2.669  0.00  0.00    -0.002 C 
ENDBRANCH  30  32
ENDBRANCH  29  30
ENDBRANCH   1  29
TORSDOF 5
