REMARK  Name = ZINC08036052
REMARK                            x       y       z     vdW  Elec       q    Type
REMARK                         _______ _______ _______ _____ _____    ______ ____
ROOT
ATOM      1  C   LIG    1       -0.016   1.344   0.009  0.00  0.00    +0.213 C 
ATOM      2  N   LIG    1        0.002  -0.004   0.002  0.00  0.00    -0.311 N 
ATOM      3  H   LIG    1       -0.831  -0.500   0.007  0.00  0.00    +0.149 HD
ATOM      4  O   LIG    1        1.026   1.964   0.003  0.00  0.00    -0.276 OA
ENDROOT
BRANCH   1   5
ATOM      5  C   LIG    1       -1.331   2.079   0.020  0.00  0.00    +0.096 C 
BRANCH   5   6
ATOM      6  C   LIG    1       -1.072   3.587   0.027  0.00  0.00    +0.009 C 
BRANCH   6   7
ATOM      7  C   LIG    1       -2.408   4.334   0.037  0.00  0.00    +0.000 C 
BRANCH   7   8
ATOM      8  C   LIG    1       -2.148   5.842   0.044  0.00  0.00    +0.000 C 
BRANCH   8   9
ATOM      9  C   LIG    1       -3.484   6.589   0.054  0.00  0.00    -0.000 C 
BRANCH   9  10
ATOM     10  C   LIG    1       -3.224   8.097   0.061  0.00  0.00    -0.000 C 
BRANCH  10  12
ATOM     11  C   LIG    1       -4.301  10.351   0.079  0.00  0.00    +0.004 C 
ATOM     12  C   LIG    1       -4.560   8.844   0.072  0.00  0.00    -0.003 C 
ENDBRANCH  10  12
ENDBRANCH   9  10
ENDBRANCH   8   9
ENDBRANCH   7   8
ENDBRANCH   6   7
ENDBRANCH   5   6
ENDBRANCH   1   5
BRANCH   2  13
ATOM     13  C   LIG    1        1.281  -0.719  -0.014  0.00  0.00    +0.140 C 
BRANCH  13  14
ATOM     14  C   LIG    1        1.025  -2.204  -0.020  0.00  0.00    -0.014 A 
ATOM     15  C   LIG    1        1.203  -2.931  -1.183  0.00  0.00    +0.055 A 
ATOM     16  C   LIG    1        0.969  -4.296  -1.190  0.00  0.00    +0.162 A 
ATOM     17  C   LIG    1        0.555  -4.934  -0.024  0.00  0.00    +0.159 A 
ATOM     18  C   LIG    1        0.378  -4.201   1.138  0.00  0.00    +0.063 A 
ATOM     19  C   LIG    1        0.619  -2.839   1.140  0.00  0.00    +0.022 A 
ATOM     20  I   LIG    1        0.361  -1.734   2.901  0.00  0.00    -0.043 I 
BRANCH  16  21
ATOM     21  O   LIG    1        1.143  -5.011  -2.333  0.00  0.00    -0.491 OA
ATOM     22  C   LIG    1        1.569  -4.290  -3.491  0.00  0.00    +0.277 C 
ENDBRANCH  16  21
BRANCH  17  23
ATOM     23  O   LIG    1        0.323  -6.274  -0.026  0.00  0.00    -0.503 OA
ATOM     24  H   LIG    1        1.099  -6.808   0.193  0.00  0.00    +0.292 HD
ENDBRANCH  17  23
ENDBRANCH  13  14
ENDBRANCH   2  13
TORSDOF 11
