REMARK  Name = ZINC06484227
REMARK                            x       y       z     vdW  Elec       q    Type
REMARK                         _______ _______ _______ _____ _____    ______ ____
ROOT
ATOM      1  C   UNK    1        0.533   5.853   3.132  0.00  0.00    +0.091 C 
ENDROOT
BRANCH   1   5
ATOM      2  C   UNK    1       -0.553   9.971   3.478  0.00  0.00    +0.120 A 
ATOM      3  C   UNK    1        0.659   9.618   2.903  0.00  0.00    +0.046 A 
ATOM      4  C   UNK    1        1.008   8.286   2.792  0.00  0.00    +0.009 A 
ATOM      5  C   UNK    1        0.150   7.305   3.254  0.00  0.00    -0.023 A 
ATOM      6  C   UNK    1       -1.062   7.654   3.822  0.00  0.00    +0.009 A 
ATOM      7  C   UNK    1       -1.413   8.985   3.940  0.00  0.00    +0.046 A 
BRANCH   2   9
ATOM      8  C   UNK    1       -2.162  11.571   4.190  0.00  0.00    +0.277 C 
ATOM      9  O   UNK    1       -0.899  11.281   3.587  0.00  0.00    -0.495 OA
ENDBRANCH   2   9
ENDBRANCH   1   5
BRANCH   1  10
ATOM     10  C   UNK    1        1.348   5.446   4.333  0.00  0.00    -0.023 A 
ATOM     11  C   UNK    1        0.842   5.630   5.606  0.00  0.00    +0.005 A 
ATOM     12  C   UNK    1        1.587   5.252   6.707  0.00  0.00    +0.000 A 
ATOM     13  C   UNK    1        2.843   4.700   6.536  0.00  0.00    +0.000 A 
ATOM     14  C   UNK    1        3.351   4.521   5.263  0.00  0.00    +0.000 A 
ATOM     15  C   UNK    1        2.603   4.894   4.162  0.00  0.00    +0.005 A 
ENDBRANCH   1  10
BRANCH   1  16
ATOM     16  C   UNK    1       -0.713   5.009   3.062  0.00  0.00    -0.023 A 
ATOM     17  C   UNK    1       -0.983   4.090   4.059  0.00  0.00    +0.005 A 
ATOM     18  C   UNK    1       -2.129   3.319   3.996  0.00  0.00    +0.000 A 
ATOM     19  C   UNK    1       -3.000   3.460   2.932  0.00  0.00    +0.000 A 
ATOM     20  C   UNK    1       -2.727   4.375   1.932  0.00  0.00    +0.000 A 
ATOM     21  C   UNK    1       -1.584   5.149   1.997  0.00  0.00    +0.005 A 
ENDBRANCH   1  16
BRANCH   1  22
ATOM     22  S   UNK    1        1.514   5.610   1.626  0.00  0.00    -0.141 S 
BRANCH  22  23
ATOM     23  C   UNK    1        1.702   3.810   1.510  0.00  0.00    +0.065 C 
BRANCH  23  24
ATOM     24  C   UNK    1        2.441   3.456   0.217  0.00  0.00    +0.046 C 
BRANCH  24  25
ATOM     25  N   UNK    1        3.818   3.979   0.252  0.00  0.00    +0.387 N 
ATOM     26  H   UNK    1        4.306   3.703  -0.608  0.00  0.00    -0.089 HD
ATOM     27  H   UNK    1        4.316   3.596   1.054  0.00  0.00    -0.089 HD
ATOM     28  H   UNK    1        3.804   4.995   0.315  0.00  0.00    -0.089 HD
ENDBRANCH  24  25
BRANCH  24  29
ATOM     29  C   UNK    1        2.489   1.958   0.060  0.00  0.00    +0.291 C 
ATOM     30  O   UNK    1        3.491   1.352   0.357  0.00  0.00    -0.253 OA
BRANCH  29  31
ATOM     31  O   UNK    1        1.419   1.298  -0.411  0.00  0.00    -0.482 OA
ATOM     32  H   UNK    1        0.642   1.768  -0.641  0.00  0.00    +0.295 HD
ENDBRANCH  29  31
ENDBRANCH  24  29
ENDBRANCH  23  24
ENDBRANCH  22  23
ENDBRANCH   1  22
TORSDOF 10
