REMARK  Name = ZINC08399030
REMARK                            x       y       z     vdW  Elec       q    Type
REMARK                         _______ _______ _______ _____ _____    ______ ____
ROOT
ATOM      1  N   LIG    1       -2.155   4.116  -8.418  0.00  0.00    -0.331 N 
ATOM      2  C   LIG    1       -3.148   4.984  -7.771  0.00  0.00    +0.086 C 
ATOM      3  C   LIG    1       -2.498   5.705  -6.588  0.00  0.00    -0.060 C 
ATOM      4  N   LIG    1       -1.995   4.696  -5.633  0.00  0.00    +0.382 N 
ATOM      5  H   LIG    1       -2.778   4.107  -5.327  0.00  0.00    -0.082 HD
ATOM      6  C   LIG    1       -0.980   3.844  -6.288  0.00  0.00    -0.060 C 
ATOM      7  C   LIG    1       -1.631   3.123  -7.471  0.00  0.00    +0.086 C 
ENDROOT
BRANCH   1  13
ATOM      8  C   LIG    1       -2.123   3.705 -10.803  0.00  0.00    +0.141 A 
ATOM      9  C   LIG    1       -2.662   3.087 -11.919  0.00  0.00    +0.047 A 
ATOM     10  C   LIG    1       -3.763   2.261 -11.789  0.00  0.00    +0.004 A 
ATOM     11  C   LIG    1       -4.330   2.050 -10.546  0.00  0.00    +0.002 A 
ATOM     12  C   LIG    1       -3.796   2.660  -9.426  0.00  0.00    +0.027 A 
ATOM     13  C   LIG    1       -2.695   3.493  -9.550  0.00  0.00    +0.072 A 
BRANCH   8  14
ATOM     14  O   LIG    1       -1.039   4.517 -10.929  0.00  0.00    -0.490 OA
BRANCH  14  15
ATOM     15  C   LIG    1       -0.506   4.688 -12.244  0.00  0.00    +0.229 C 
BRANCH  15  16
ATOM     16  C   LIG    1        0.700   5.627 -12.188  0.00  0.00    +0.041 C 
BRANCH  16  18
ATOM     17  C   LIG    1        2.477   6.749 -13.539  0.00  0.00    +0.004 C 
ATOM     18  C   LIG    1        1.270   5.809 -13.596  0.00  0.00    -0.000 C 
ENDBRANCH  16  18
ENDBRANCH  15  16
ENDBRANCH  14  15
ENDBRANCH   8  14
ENDBRANCH   1  13
BRANCH   4  19
ATOM     19  C   LIG    1       -1.407   5.365  -4.453  0.00  0.00    -0.077 C 
BRANCH  19  20
ATOM     20  C   LIG    1       -1.101   4.310  -3.388  0.00  0.00    +0.000 C 
BRANCH  20  21
ATOM     21  C   LIG    1       -0.511   4.991  -2.151  0.00  0.00    +0.106 C 
BRANCH  21  22
ATOM     22  N   LIG    1       -0.219   3.981  -1.131  0.00  0.00    -0.291 N 
ATOM     23  C   LIG    1       -1.221   3.592  -0.122  0.00  0.00    +0.203 C 
ATOM     24  C   LIG    1       -1.233   2.081  -0.019  0.00  0.00    +0.234 C 
ATOM     25  N   LIG    1       -0.018   1.452   0.010  0.00  0.00    -0.289 N 
ATOM     26  C   LIG    1        0.002  -0.004   0.002  0.00  0.00    +0.108 C 
ATOM     27  C   LIG    1        1.390  -0.538   0.356  0.00  0.00    +0.019 C 
ATOM     28  C   LIG    1        2.408   0.196  -0.530  0.00  0.00    +0.004 C 
ATOM     29  C   LIG    1        2.497   1.639  -0.036  0.00  0.00    +0.032 C 
ATOM     30  C   LIG    1        1.152   2.310   0.004  0.00  0.00    +0.162 C 
ATOM     31  O   LIG    1       -2.271   1.457   0.035  0.00  0.00    -0.274 OA
ATOM     32  C   LIG    1        0.994   3.357  -1.072  0.00  0.00    +0.237 C 
ATOM     33  O   LIG    1        1.892   3.629  -1.840  0.00  0.00    -0.274 OA
ENDBRANCH  21  22
ENDBRANCH  20  21
ENDBRANCH  19  20
ENDBRANCH   4  19
TORSDOF 9
