REMARK  Name = ZINC06116830
REMARK                            x       y       z     vdW  Elec       q    Type
REMARK                         _______ _______ _______ _____ _____    ______ ____
ROOT
ATOM      1  N   LIG    1        3.622  -0.650  -0.036  0.00  0.00    -0.160 N 
ATOM      2  C   LIG    1        3.747  -1.999  -0.050  0.00  0.00    +0.254 C 
ATOM      3  C   LIG    1        5.211  -2.255  -0.276  0.00  0.00    +0.169 C 
ATOM      4  C   LIG    1        5.844  -3.134   0.766  0.00  0.00    +0.103 C 
ATOM      5  N   LIG    1        7.051  -2.918   1.173  0.00  0.00    -0.258 NA
ATOM      6  C   LIG    1        7.861  -1.911   0.734  0.00  0.00    +0.072 A 
ATOM      7  C   LIG    1        9.242  -1.952   0.894  0.00  0.00    +0.028 A 
ATOM      8  C   LIG    1       10.016  -0.893   0.465  0.00  0.00    +0.002 A 
ATOM      9  C   LIG    1        9.441   0.221  -0.126  0.00  0.00    +0.001 A 
ATOM     10  C   LIG    1        8.070   0.282  -0.310  0.00  0.00    +0.012 A 
ATOM     11  C   LIG    1        7.286  -0.778   0.100  0.00  0.00    +0.024 A 
ATOM     12  C   LIG    1        5.831  -0.866  -0.109  0.00  0.00    +0.086 C 
ATOM     13  O   LIG    1        2.867  -2.822   0.088  0.00  0.00    -0.272 OA
ATOM     14  N   LIG    1        4.873  -0.029  -0.046  0.00  0.00    -0.175 NA
ENDROOT
BRANCH   1  18
ATOM     15  C   LIG    1       -0.017   1.379   0.010  0.00  0.00    +0.000 A 
ATOM     16  C   LIG    1        1.170   2.089   0.002  0.00  0.00    +0.002 A 
ATOM     17  C   LIG    1        2.377   1.420  -0.013  0.00  0.00    +0.025 A 
ATOM     18  C   LIG    1        2.400   0.031  -0.021  0.00  0.00    +0.060 A 
ATOM     19  C   LIG    1        1.206  -0.680  -0.013  0.00  0.00    +0.025 A 
ATOM     20  C   LIG    1        0.002  -0.004   0.002  0.00  0.00    +0.002 A 
ENDBRANCH   1  18
TORSDOF 1
