REMARK  Name = ZINC08438481
REMARK                            x       y       z     vdW  Elec       q    Type
REMARK                         _______ _______ _______ _____ _____    ______ ____
ROOT
ATOM      1  C   LIG    1        4.006  -6.128   0.264  0.00  0.00    +0.136 A 
ATOM      2  N   LIG    1        3.805  -4.839   0.108  0.00  0.00    -0.233 NA
ATOM      3  C   LIG    1        2.567  -4.302   0.033  0.00  0.00    +0.080 A 
ATOM      4  C   LIG    1        2.215  -2.943  -0.133  0.00  0.00    +0.031 A 
ATOM      5  C   LIG    1        0.911  -2.560  -0.189  0.00  0.00    +0.025 A 
ATOM      6  C   LIG    1       -0.126  -3.485  -0.086  0.00  0.00    +0.035 A 
ATOM      7  C   LIG    1        0.181  -4.829   0.083  0.00  0.00    +0.040 A 
ATOM      8  C   LIG    1        1.495  -5.219   0.135  0.00  0.00    +0.042 A 
ATOM      9  S   LIG    1        2.340  -6.770   0.328  0.00  0.00    -0.061 S 
ENDROOT
BRANCH   6  10
ATOM     10  N   LIG    1       -1.460  -3.064  -0.147  0.00  0.00    -0.281 N 
ATOM     11  H   LIG    1       -1.712  -2.196   0.206  0.00  0.00    +0.155 HD
ATOM     12  C   LIG    1       -2.394  -3.864  -0.698  0.00  0.00    +0.249 C 
ATOM     13  O   LIG    1       -2.066  -4.909  -1.226  0.00  0.00    -0.270 OA
BRANCH  12  14
ATOM     14  C   LIG    1       -3.816  -3.475  -0.654  0.00  0.00    +0.045 A 
ATOM     15  C   LIG    1       -4.188  -2.231  -0.167  0.00  0.00    +0.014 A 
ATOM     16  C   LIG    1       -5.526  -1.857  -0.128  0.00  0.00    +0.001 A 
ATOM     17  C   LIG    1       -6.507  -2.702  -0.554  0.00  0.00    +0.008 A 
ATOM     18  C   LIG    1       -6.176  -3.974  -1.050  0.00  0.00    -0.017 A 
ATOM     19  C   LIG    1       -7.171  -4.863  -1.496  0.00  0.00    +0.008 A 
ATOM     20  C   LIG    1       -6.816  -6.089  -1.969  0.00  0.00    +0.001 A 
ATOM     21  C   LIG    1       -5.479  -6.477  -2.021  0.00  0.00    +0.001 A 
ATOM     22  C   LIG    1       -4.490  -5.641  -1.597  0.00  0.00    +0.009 A 
ATOM     23  C   LIG    1       -4.818  -4.372  -1.103  0.00  0.00    -0.006 A 
ENDBRANCH  12  14
ENDBRANCH   6  10
BRANCH   1  24
ATOM     24  S   LIG    1        5.532  -7.002   0.383  0.00  0.00    -0.094 S 
BRANCH  24  25
ATOM     25  C   LIG    1        6.696  -5.625   0.226  0.00  0.00    +0.112 C 
BRANCH  25  34
ATOM     26  C   LIG    1        8.063  -6.426  -2.185  0.00  0.00    +0.044 C 
ATOM     27  C   LIG    1        8.763  -6.533  -0.855  0.00  0.00    -0.046 A 
ATOM     28  C   LIG    1       10.060  -7.014  -0.797  0.00  0.00    +0.007 A 
ATOM     29  C   LIG    1       10.707  -7.116   0.416  0.00  0.00    -0.039 A 
ATOM     30  C   LIG    1       12.118  -7.641   0.478  0.00  0.00    +0.044 C 
ATOM     31  C   LIG    1       10.050  -6.730   1.590  0.00  0.00    +0.023 A 
ATOM     32  C   LIG    1        8.743  -6.239   1.521  0.00  0.00    -0.036 A 
ATOM     33  C   LIG    1        8.029  -5.815   2.779  0.00  0.00    +0.045 C 
ATOM     34  C   LIG    1        8.107  -6.149   0.301  0.00  0.00    -0.031 A 
BRANCH  31  35
ATOM     35  C   LIG    1       10.735  -6.835   2.889  0.00  0.00    +0.161 C 
ATOM     36  C   LIG    1       10.533  -8.055   3.750  0.00  0.00    +0.091 C 
ATOM     37  O   LIG    1       11.460  -5.939   3.266  0.00  0.00    -0.292 OA
ENDBRANCH  31  35
ENDBRANCH  25  34
ENDBRANCH  24  25
ENDBRANCH   1  24
TORSDOF 6
