REMARK  Name = ZINC07502188
REMARK                            x       y       z     vdW  Elec       q    Type
REMARK                         _______ _______ _______ _____ _____    ______ ____
ROOT
ATOM      1  C   LIG    1       -0.543   1.446  -3.655  0.00  0.00    +0.131 C 
ATOM      2  S   LIG    1       -1.950   2.412  -3.793  0.00  0.00    -0.019 S 
ENDROOT
BRANCH   1   3
ATOM      3  N   LIG    1        0.087   1.011  -4.764  0.00  0.00    -0.322 N 
ATOM      4  H   LIG    1        0.884   0.464  -4.685  0.00  0.00    +0.148 HD
BRANCH   3   5
ATOM      5  C   LIG    1       -0.431   1.366  -6.087  0.00  0.00    +0.138 C 
BRANCH   5   9
ATOM      6  C   LIG    1        2.065  -0.352  -9.099  0.00  0.00    +0.000 A 
ATOM      7  C   LIG    1        0.983  -1.061  -8.611  0.00  0.00    +0.000 A 
ATOM      8  C   LIG    1        0.176  -0.505  -7.636  0.00  0.00    +0.005 A 
ATOM      9  C   LIG    1        0.450   0.760  -7.150  0.00  0.00    -0.030 A 
ATOM     10  C   LIG    1        1.528   1.471  -7.642  0.00  0.00    +0.005 A 
ATOM     11  C   LIG    1        2.338   0.913  -8.614  0.00  0.00    +0.000 A 
ENDBRANCH   5   9
ENDBRANCH   3   5
ENDBRANCH   1   3
BRANCH   1  12
ATOM     12  N   LIG    1       -0.067   1.120  -2.437  0.00  0.00    -0.327 N 
ATOM     13  H   LIG    1        0.730   0.573  -2.358  0.00  0.00    +0.148 HD
BRANCH  12  14
ATOM     14  C   LIG    1       -0.753   1.593  -1.232  0.00  0.00    +0.105 C 
BRANCH  14  15
ATOM     15  C   LIG    1       -0.013   1.086   0.008  0.00  0.00    +0.040 C 
BRANCH  15  16
ATOM     16  C   LIG    1       -0.729   1.579   1.267  0.00  0.00    +0.124 C 
BRANCH  16  17
ATOM     17  N   LIG    1       -0.020   1.094   2.454  0.00  0.00    -0.338 N 
ATOM     18  C   LIG    1       -0.255  -0.081   3.116  0.00  0.00    +0.104 A 
ATOM     19  C   LIG    1        0.618  -0.132   4.140  0.00  0.00    +0.101 A 
ATOM     20  N   LIG    1        1.358   0.986   4.109  0.00  0.00    -0.352 N 
ATOM     21  H   LIG    1        2.104   1.222   4.773  0.00  0.00    +0.166 HD
ATOM     22  C   LIG    1        0.982   1.725   3.102  0.00  0.00    +0.173 A 
ENDBRANCH  16  17
ENDBRANCH  15  16
ENDBRANCH  14  15
ENDBRANCH  12  14
ENDBRANCH   1  12
TORSDOF 8
