REMARK  Name = ZINC08581462
REMARK                            x       y       z     vdW  Elec       q    Type
REMARK                         _______ _______ _______ _____ _____    ______ ____
ROOT
ATOM      1  C   LIG    1       -0.017   1.392   0.010  0.00  0.00    +0.023 A 
ATOM      2  C   LIG    1        1.147   2.106   0.002  0.00  0.00    +0.016 A 
ATOM      3  C   LIG    1        2.370   1.435  -0.013  0.00  0.00    +0.053 A 
ATOM      4  C   LIG    1        2.401   0.021  -0.021  0.00  0.00    +0.052 A 
ATOM      5  C   LIG    1        3.704  -0.653  -0.037  0.00  0.00    +0.238 A 
ATOM      6  N   LIG    1        4.800   0.052  -0.044  0.00  0.00    -0.133 NA
ATOM      7  N   LIG    1        4.796   1.447  -0.037  0.00  0.00    -0.239 N 
ATOM      8  H   LIG    1        5.642   1.921  -0.043  0.00  0.00    +0.192 HD
ATOM      9  C   LIG    1        1.205  -0.693  -0.013  0.00  0.00    +0.036 A 
ATOM     10  C   LIG    1        3.648   2.156  -0.022  0.00  0.00    +0.273 A 
ATOM     11  O   LIG    1        3.672   3.374  -0.016  0.00  0.00    -0.266 OA
ATOM     12  C   LIG    1        0.002  -0.004   0.002  0.00  0.00    +0.025 A 
ENDROOT
BRANCH  12  13
ATOM     13  N   LIG    1       -1.198  -0.711   0.010  0.00  0.00    -0.358 N 
ATOM     14  H   LIG    1       -1.189  -1.681   0.005  0.00  0.00    +0.142 HD
ATOM     15  H   LIG    1       -2.042  -0.233   0.021  0.00  0.00    +0.142 HD
ENDBRANCH  12  13
BRANCH   5  16
ATOM     16  O   LIG    1        3.768  -2.009  -0.045  0.00  0.00    -0.491 OA
ATOM     17  H   LIG    1        2.979  -2.515  -0.040  0.00  0.00    +0.294 HD
ENDBRANCH   5  16
TORSDOF 2
