REMARK  Name = ZINC06582608
REMARK                            x       y       z     vdW  Elec       q    Type
REMARK                         _______ _______ _______ _____ _____    ______ ____
ROOT
ATOM      1  C   LIG    1        3.734  -0.964  -0.040  0.00  0.00    +0.186 C 
ATOM      2  O   LIG    1        4.779  -0.338  -0.047  0.00  0.00    -0.287 OA
ENDROOT
BRANCH   1   3
ATOM      3  C   LIG    1        3.757  -2.441  -0.049  0.00  0.00    +0.029 A 
ATOM      4  C   LIG    1        2.558  -3.159  -0.036  0.00  0.00    +0.061 A 
ATOM      5  C   LIG    1        2.583  -4.541  -0.048  0.00  0.00    +0.166 A 
ATOM      6  C   LIG    1        3.800  -5.217  -0.064  0.00  0.00    +0.204 A 
ATOM      7  C   LIG    1        4.995  -4.503  -0.072  0.00  0.00    +0.166 A 
ATOM      8  C   LIG    1        4.977  -3.121  -0.065  0.00  0.00    +0.061 A 
BRANCH   5   9
ATOM      9  O   LIG    1        1.417  -5.241  -0.039  0.00  0.00    -0.491 OA
ATOM     10  C   LIG    1        0.205  -4.483  -0.023  0.00  0.00    +0.277 C 
ENDBRANCH   5   9
BRANCH   6  11
ATOM     11  O   LIG    1        3.821  -6.576  -0.071  0.00  0.00    -0.488 OA
ATOM     12  C   LIG    1        3.844  -7.232   1.198  0.00  0.00    +0.277 C 
ENDBRANCH   6  11
BRANCH   7  13
ATOM     13  O   LIG    1        6.183  -5.167  -0.088  0.00  0.00    -0.491 OA
ATOM     14  C   LIG    1        7.370  -4.372  -0.095  0.00  0.00    +0.277 C 
ENDBRANCH   7  13
ENDBRANCH   1   3
BRANCH   1  16
ATOM     15  C   LIG    1        2.474   1.078  -0.016  0.00  0.00    +0.012 C 
ATOM     16  C   LIG    1        2.495  -0.274  -0.024  0.00  0.00    +0.052 C 
BRANCH  15  20
ATOM     17  C   LIG    1       -1.237   3.137   0.031  0.00  0.00    +0.161 A 
ATOM     18  C   LIG    1       -1.214   1.748   0.017  0.00  0.00    +0.050 A 
ATOM     19  C   LIG    1       -0.013   1.076   0.008  0.00  0.00    +0.012 A 
ATOM     20  C   LIG    1        1.190   1.793   0.000  0.00  0.00    -0.021 A 
ATOM     21  C   LIG    1        1.166   3.193   0.008  0.00  0.00    +0.057 A 
ATOM     22  C   LIG    1       -0.043   3.858   0.023  0.00  0.00    +0.159 A 
BRANCH  17  24
ATOM     23  C   LIG    1       -3.609   2.995   0.053  0.00  0.00    +0.277 C 
ATOM     24  O   LIG    1       -2.425   3.795   0.046  0.00  0.00    -0.491 OA
ENDBRANCH  17  24
BRANCH  22  25
ATOM     25  O   LIG    1       -0.071   5.218   0.031  0.00  0.00    -0.503 OA
ATOM     26  H   LIG    1       -0.087   5.616  -0.850  0.00  0.00    +0.292 HD
ENDBRANCH  22  25
ENDBRANCH  15  20
ENDBRANCH   1  16
TORSDOF 8
