REMARK  Name = ZINC08552816
REMARK                            x       y       z     vdW  Elec       q    Type
REMARK                         _______ _______ _______ _____ _____    ______ ____
ROOT
ATOM      1  C   LIG    1       -2.576   5.512   0.048  0.00  0.00    +0.020 A 
ATOM      2  C   LIG    1       -3.796   6.178   0.069  0.00  0.00    +0.018 A 
ATOM      3  C   LIG    1       -4.975   5.460   0.073  0.00  0.00    +0.034 A 
ATOM      4  C   LIG    1       -4.955   4.074   0.058  0.00  0.00    +0.122 A 
ATOM      5  C   LIG    1       -3.758   3.395   0.031  0.00  0.00    +0.041 A 
ATOM      6  C   LIG    1       -2.552   4.106   0.032  0.00  0.00    -0.009 A 
ENDROOT
BRANCH   4   7
ATOM      7  N   LIG    1       -6.229   3.320   0.063  0.00  0.00    +0.006 N 
ATOM      8  O   LIG    1       -7.290   3.917   0.081  0.00  0.00    -0.130 OA
BRANCH   7   9
ATOM      9  O   LIG    1       -6.215   2.102   0.050  0.00  0.00    -0.396 OA
ATOM     10  H   LIG    1       -5.399   1.642   0.036  0.00  0.00    +0.329 HD
ENDBRANCH   7   9
ENDBRANCH   4   7
BRANCH   6  11
ATOM     11  C   LIG    1       -1.271   3.389   0.010  0.00  0.00    +0.016 C 
ATOM     12  C   LIG    1       -1.253   2.037  -0.005  0.00  0.00    +0.092 C 
BRANCH  12  13
ATOM     13  C   LIG    1       -0.018   1.345  -0.026  0.00  0.00    +0.330 C 
ATOM     14  O   LIG    1        1.028   1.968  -0.036  0.00  0.00    -0.246 OA
BRANCH  13  15
ATOM     15  O   LIG    1        0.001  -0.004  -0.042  0.00  0.00    -0.478 OA
ATOM     16  H   LIG    1       -0.805  -0.483  -0.035  0.00  0.00    +0.295 HD
ENDBRANCH  13  15
ENDBRANCH  12  13
ENDBRANCH   6  11
BRANCH   1  17
ATOM     17  S   LIG    1       -1.069   6.425   0.041  0.00  0.00    -0.089 S 
BRANCH  17  22
ATOM     18  C   LIG    1       -2.847  12.175  -0.429  0.00  0.00    +0.044 C 
ATOM     19  C   LIG    1       -2.403  10.739  -0.311  0.00  0.00    -0.050 A 
ATOM     20  C   LIG    1       -2.148  10.196   0.935  0.00  0.00    +0.004 A 
ATOM     21  C   LIG    1       -1.741   8.881   1.046  0.00  0.00    +0.015 A 
ATOM     22  C   LIG    1       -1.588   8.104  -0.096  0.00  0.00    +0.013 A 
ATOM     23  C   LIG    1       -1.840   8.655  -1.346  0.00  0.00    +0.015 A 
ATOM     24  C   LIG    1       -2.252   9.969  -1.450  0.00  0.00    +0.004 A 
ENDBRANCH  17  22
ENDBRANCH   1  17
TORSDOF 7
