REMARK  Name = ZINC08461952
REMARK                            x       y       z     vdW  Elec       q    Type
REMARK                         _______ _______ _______ _____ _____    ______ ____
ROOT
ATOM      1  C   LIG    1       -0.013   1.086   0.008  0.00  0.00    +0.006 C 
ATOM      2  C   LIG    1       -0.729   1.579   1.267  0.00  0.00    +0.051 C 
ENDROOT
BRANCH   2   3
ATOM      3  C   LIG    1       -0.749   3.086   1.275  0.00  0.00    -0.049 A 
ATOM      4  C   LIG    1        0.275   3.795   0.675  0.00  0.00    +0.003 A 
ATOM      5  C   LIG    1        0.254   5.177   0.679  0.00  0.00    +0.000 A 
ATOM      6  C   LIG    1       -0.787   5.851   1.291  0.00  0.00    +0.000 A 
ATOM      7  C   LIG    1       -1.808   5.142   1.895  0.00  0.00    +0.000 A 
ATOM      8  C   LIG    1       -1.790   3.760   1.887  0.00  0.00    +0.003 A 
ENDBRANCH   2   3
BRANCH   2   9
ATOM      9  N   LIG    1       -2.102   1.046   1.278  0.00  0.00    +0.391 N 
ATOM     10  H   LIG    1       -2.066   0.020   1.306  0.00  0.00    -0.088 HD
ATOM     11  H   LIG    1       -2.598   1.338   0.437  0.00  0.00    -0.088 HD
ATOM     12  H   LIG    1       -2.601   1.383   2.099  0.00  0.00    -0.088 HD
ENDBRANCH   2   9
BRANCH   2  13
ATOM     13  C   LIG    1        0.000   1.080   2.488  0.00  0.00    +0.297 C 
ATOM     14  O   LIG    1        0.822   1.781   3.030  0.00  0.00    -0.252 OA
BRANCH  13  15
ATOM     15  O   LIG    1       -0.263  -0.143   2.973  0.00  0.00    -0.481 OA
ATOM     16  H   LIG    1       -0.900  -0.687   2.553  0.00  0.00    +0.295 HD
ENDBRANCH  13  15
ENDBRANCH   2  13
TORSDOF 4
