REMARK  Name = ZINC06567211
REMARK                            x       y       z     vdW  Elec       q    Type
REMARK                         _______ _______ _______ _____ _____    ______ ____
ROOT
ATOM      1  C   LIG    1        0.512   9.735  -1.411  0.00  0.00    +0.026 A 
ATOM      2  C   LIG    1        0.581   8.879  -2.496  0.00  0.00    +0.017 A 
ATOM      3  C   LIG    1        0.714   7.533  -2.265  0.00  0.00    +0.017 A 
ATOM      4  C   LIG    1        0.762   7.085  -0.957  0.00  0.00    +0.027 A 
ATOM      5  S   LIG    1        0.630   8.607  -0.033  0.00  0.00    -0.087 S 
ENDROOT
BRANCH   1   8
ATOM      6  C   LIG    1        0.178  13.408  -0.559  0.00  0.00    +0.008 A 
ATOM      7  C   LIG    1        0.306  12.058  -0.316  0.00  0.00    +0.016 A 
ATOM      8  C   LIG    1        0.376  11.200  -1.397  0.00  0.00    +0.026 A 
ATOM      9  S   LIG    1        0.266  12.333  -2.772  0.00  0.00    -0.096 S 
ATOM     10  C   LIG    1        0.126  13.850  -1.841  0.00  0.00    +0.046 A 
ENDBRANCH   1   8
BRANCH   4  11
ATOM     11  C   LIG    1        0.896   5.709  -0.456  0.00  0.00    +0.026 A 
ATOM     12  C   LIG    1        0.950   5.258   0.850  0.00  0.00    +0.017 A 
ATOM     13  C   LIG    1        1.073   3.904   1.070  0.00  0.00    +0.014 A 
ATOM     14  C   LIG    1        1.147   3.062   0.008  0.00  0.00    +0.016 A 
ATOM     15  S   LIG    1        1.030   4.184  -1.376  0.00  0.00    -0.090 S 
BRANCH  14  16
ATOM     16  C   LIG    1        1.286   1.562  -0.002  0.00  0.00    +0.198 C 
BRANCH  16  17
ATOM     17  O   LIG    1       -0.011   0.963   0.007  0.00  0.00    -0.390 OA
ATOM     18  H   LIG    1        0.002  -0.004   0.002  0.00  0.00    +0.210 HD
ENDBRANCH  16  17
ENDBRANCH  14  16
ENDBRANCH   4  11
TORSDOF 4
