REMARK  Name = ZINC06501133
REMARK                            x       y       z     vdW  Elec       q    Type
REMARK                         _______ _______ _______ _____ _____    ______ ____
ROOT
ATOM      1  N   LIG    1        0.210   0.894  -2.283  0.00  0.00    -0.285 N 
ATOM      2  C   LIG    1       -0.065  -0.285  -2.876  0.00  0.00    +0.264 C 
ATOM      3  O   LIG    1        0.570  -0.638  -3.852  0.00  0.00    -0.268 OA
ENDROOT
BRANCH   2   4
ATOM      4  C   LIG    1       -1.129  -1.142  -2.344  0.00  0.00    +0.102 A 
ATOM      5  C   LIG    1       -1.445  -2.411  -2.785  0.00  0.00    +0.033 A 
ATOM      6  C   LIG    1       -2.513  -2.868  -2.014  0.00  0.00    +0.028 A 
ATOM      7  C   LIG    1       -2.833  -1.874  -1.115  0.00  0.00    +0.047 A 
ATOM      8  N   LIG    1       -1.985  -0.825  -1.313  0.00  0.00    -0.351 N 
ATOM      9  H   LIG    1       -1.986   0.007  -0.814  0.00  0.00    +0.166 HD
BRANCH   7  10
ATOM     10  C   LIG    1       -3.909  -1.937  -0.103  0.00  0.00    -0.002 A 
ATOM     11  C   LIG    1       -4.205  -0.818   0.677  0.00  0.00    +0.010 A 
ATOM     12  C   LIG    1       -5.213  -0.882   1.616  0.00  0.00    +0.001 A 
ATOM     13  C   LIG    1       -5.923  -2.056   1.794  0.00  0.00    +0.000 A 
ATOM     14  C   LIG    1       -5.631  -3.171   1.029  0.00  0.00    +0.001 A 
ATOM     15  C   LIG    1       -4.629  -3.119   0.082  0.00  0.00    +0.010 A 
ENDBRANCH   7  10
ENDBRANCH   2   4
BRANCH   1  16
ATOM     16  C   LIG    1        1.355   1.690  -2.732  0.00  0.00    +0.162 C 
BRANCH  16  17
ATOM     17  C   LIG    1        2.400   1.724  -1.647  0.00  0.00    +0.234 C 
ATOM     18  N   LIG    1        3.513   2.466  -1.806  0.00  0.00    -0.311 N 
ATOM     19  H   LIG    1        3.642   2.979  -2.619  0.00  0.00    +0.149 HD
ATOM     20  O   LIG    1        2.239   1.083  -0.630  0.00  0.00    -0.274 OA
BRANCH  18  21
ATOM     21  C   LIG    1        4.529   2.499  -0.750  0.00  0.00    +0.073 C 
ATOM     22  C   LIG    1        4.150   3.556   0.289  0.00  0.00    +0.022 C 
ATOM     23  C   LIG    1        5.211   3.590   1.391  0.00  0.00    +0.002 C 
ATOM     24  C   LIG    1        6.569   3.940   0.781  0.00  0.00    +0.000 C 
ATOM     25  C   LIG    1        6.948   2.884  -0.259  0.00  0.00    +0.002 C 
ATOM     26  C   LIG    1        5.888   2.849  -1.361  0.00  0.00    +0.022 C 
ENDBRANCH  18  21
ENDBRANCH  16  17
BRANCH  16  27
ATOM     27  C   LIG    1        0.895   3.115  -3.042  0.00  0.00    +0.032 C 
BRANCH  27  29
ATOM     28  C   LIG    1       -0.532   4.519  -4.537  0.00  0.00    +0.004 C 
ATOM     29  C   LIG    1       -0.072   3.093  -4.227  0.00  0.00    -0.001 C 
ENDBRANCH  27  29
ENDBRANCH  16  27
ENDBRANCH   1  16
BRANCH   1  30
ATOM     30  C   LIG    1       -0.635   1.379  -1.190  0.00  0.00    +0.107 C 
BRANCH  30  31
ATOM     31  C   LIG    1       -0.320   0.595   0.086  0.00  0.00    +0.000 C 
BRANCH  31  32
ATOM     32  C   LIG    1       -1.153   1.149   1.244  0.00  0.00    -0.077 C 
BRANCH  32  33
ATOM     33  N   LIG    1       -0.774   0.441   2.485  0.00  0.00    +0.379 N 
ATOM     34  H   LIG    1       -0.826  -0.572   2.320  0.00  0.00    -0.082 HD
BRANCH  33  35
ATOM     35  C   LIG    1       -1.705   0.799   3.575  0.00  0.00    -0.082 C 
ATOM     36  C   LIG    1       -1.367  -0.040   4.810  0.00  0.00    -0.017 C 
ENDBRANCH  33  35
BRANCH  33  37
ATOM     37  C   LIG    1        0.610   0.794   2.865  0.00  0.00    -0.082 C 
ATOM     38  C   LIG    1        0.710   2.284   3.200  0.00  0.00    -0.017 C 
ENDBRANCH  33  37
ENDBRANCH  32  33
ENDBRANCH  31  32
ENDBRANCH  30  31
ENDBRANCH   1  30
TORSDOF 13
