REMARK  Name = ZINC08449891
REMARK                            x       y       z     vdW  Elec       q    Type
REMARK                         _______ _______ _______ _____ _____    ______ ____
ROOT
ATOM      1  C   LIG    1        0.108  -8.676  -1.965  0.00  0.00    +0.059 A 
ATOM      2  C   LIG    1        0.374  -9.219  -0.705  0.00  0.00    +0.017 A 
ATOM      3  C   LIG    1        0.392 -10.585  -0.536  0.00  0.00    +0.025 A 
ATOM      4  C   LIG    1        0.146 -11.425  -1.617  0.00  0.00    +0.044 A 
ATOM      5  C   LIG    1       -0.118 -10.889  -2.873  0.00  0.00    +0.025 A 
ATOM      6  C   LIG    1       -0.144  -9.523  -3.048  0.00  0.00    +0.017 A 
ENDROOT
BRANCH   4   7
ATOM      7  N   LIG    1        0.166 -12.812  -1.442  0.00  0.00    -0.210 N 
ATOM      8  C   LIG    1        1.102 -13.596  -1.987  0.00  0.00    +0.231 C 
ATOM      9  C   LIG    1        0.839 -15.035  -1.605  0.00  0.00    +0.095 C 
ATOM     10  C   LIG    1        1.955 -15.491  -0.613  0.00  0.00    +0.025 C 
ATOM     11  C   LIG    1        1.135 -16.461   0.314  0.00  0.00    +0.016 C 
ATOM     12  C   LIG    1        0.091 -15.352   0.706  0.00  0.00    +0.025 C 
ATOM     13  C   LIG    1        1.048 -14.219   1.098  0.00  0.00    -0.027 C 
ATOM     14  C   LIG    1        2.137 -14.290   0.324  0.00  0.00    -0.027 C 
ATOM     15  C   LIG    1       -0.443 -14.942  -0.725  0.00  0.00    +0.095 C 
ATOM     16  O   LIG    1        2.021 -13.213  -2.679  0.00  0.00    -0.274 OA
ATOM     17  C   LIG    1       -0.746 -13.461  -0.710  0.00  0.00    +0.231 C 
ATOM     18  O   LIG    1       -1.674 -12.943  -0.127  0.00  0.00    -0.274 OA
ENDBRANCH   4   7
BRANCH   1  19
ATOM     19  C   LIG    1        0.088  -7.213  -2.151  0.00  0.00    +0.340 C 
ATOM     20  O   LIG    1       -0.148  -6.742  -3.246  0.00  0.00    -0.245 OA
BRANCH  19  21
ATOM     21  O   LIG    1        0.331  -6.398  -1.105  0.00  0.00    -0.453 OA
BRANCH  21  22
ATOM     22  C   LIG    1        0.295  -4.992  -1.357  0.00  0.00    +0.311 C 
BRANCH  22  23
ATOM     23  C   LIG    1        0.588  -4.245  -0.081  0.00  0.00    +0.200 C 
ATOM     24  O   LIG    1        0.807  -4.857   0.943  0.00  0.00    -0.288 OA
BRANCH  23  29
ATOM     25  C   LIG    1        0.671   1.503  -0.068  0.00  0.00    +0.044 C 
ATOM     26  C   LIG    1        0.650  -0.004  -0.071  0.00  0.00    -0.047 A 
ATOM     27  C   LIG    1        0.381  -0.686  -1.245  0.00  0.00    +0.004 A 
ATOM     28  C   LIG    1        0.359  -2.064  -1.257  0.00  0.00    +0.012 A 
ATOM     29  C   LIG    1        0.610  -2.774  -0.078  0.00  0.00    +0.021 A 
ATOM     30  C   LIG    1        0.881  -2.078   1.104  0.00  0.00    +0.015 A 
ATOM     31  C   LIG    1        0.905  -0.699   1.098  0.00  0.00    -0.047 A 
ATOM     32  C   LIG    1        1.203   0.053   2.369  0.00  0.00    +0.044 C 
ENDBRANCH  23  29
ENDBRANCH  22  23
ENDBRANCH  21  22
ENDBRANCH  19  21
ENDBRANCH   1  19
TORSDOF 6
