REMARK  Name = ZINC05998785
REMARK                            x       y       z     vdW  Elec       q    Type
REMARK                         _______ _______ _______ _____ _____    ______ ____
ROOT
ATOM      1  C   LIG    1       -0.004  -2.960  -2.327  0.00  0.00    +0.138 A 
ATOM      2  C   LIG    1       -0.165  -4.330  -2.228  0.00  0.00    +0.092 A 
ATOM      3  C   LIG    1       -0.313  -4.928  -0.982  0.00  0.00    +0.124 A 
ATOM      4  C   LIG    1       -0.302  -4.165   0.175  0.00  0.00    +0.092 A 
ATOM      5  C   LIG    1       -0.142  -2.790   0.097  0.00  0.00    +0.147 A 
ATOM      6  O   LIG    1       -0.130  -2.032   1.214  0.00  0.00    -0.451 OA
ATOM      7  C   LIG    1        0.023  -0.697   1.175  0.00  0.00    +0.181 A 
ATOM      8  C   LIG    1        0.175  -0.013   0.007  0.00  0.00    +0.208 A 
ATOM      9  C   LIG    1        0.170  -0.721  -1.223  0.00  0.00    +0.238 A 
ATOM     10  O   LIG    1        0.299  -0.140  -2.289  0.00  0.00    -0.283 OA
ATOM     11  C   LIG    1        0.008  -2.182  -1.162  0.00  0.00    +0.109 A 
ENDROOT
BRANCH   7  12
ATOM     12  C   LIG    1        0.024   0.054   2.444  0.00  0.00    +0.025 A 
ATOM     13  C   LIG    1        0.817  -0.375   3.511  0.00  0.00    +0.015 A 
ATOM     14  C   LIG    1        0.817   0.329   4.696  0.00  0.00    +0.050 A 
ATOM     15  C   LIG    1        0.031   1.465   4.832  0.00  0.00    +0.158 A 
ATOM     16  C   LIG    1       -0.762   1.899   3.772  0.00  0.00    +0.159 A 
ATOM     17  C   LIG    1       -0.764   1.201   2.579  0.00  0.00    +0.060 A 
BRANCH  15  18
ATOM     18  O   LIG    1        0.036   2.156   6.002  0.00  0.00    -0.503 OA
ATOM     19  H   LIG    1       -0.587   3.056   6.112  0.00  0.00    +0.292 HD
ENDBRANCH  15  18
BRANCH  16  20
ATOM     20  O   LIG    1       -1.531   3.012   3.909  0.00  0.00    -0.503 OA
ATOM     21  H   LIG    1       -2.158   3.354   3.072  0.00  0.00    +0.292 HD
ENDBRANCH  16  20
ENDBRANCH   7  12
BRANCH   1  23
ATOM     22  C   LIG    1        0.116  -3.234  -4.684  0.00  0.00    +0.277 C 
ATOM     23  O   LIG    1        0.140  -2.374  -3.542  0.00  0.00    -0.494 OA
ENDBRANCH   1  23
BRANCH   3  24
ATOM     24  O   LIG    1       -0.469  -6.274  -0.897  0.00  0.00    -0.507 OA
ATOM     25  H   LIG    1       -0.587  -6.753   0.086  0.00  0.00    +0.292 HD
ENDBRANCH   3  24
BRANCH   8  26
ATOM     26  O   LIG    1        0.326   1.340   0.019  0.00  0.00    -0.501 OA
ATOM     27  H   LIG    1        0.330   1.884   0.975  0.00  0.00    +0.292 HD
ENDBRANCH   8  26
TORSDOF 6
