REMARK  Name = ZINC08431474
REMARK                            x       y       z     vdW  Elec       q    Type
REMARK                         _______ _______ _______ _____ _____    ______ ____
ROOT
ATOM      1  C   LIG    1       -0.016   1.360   0.009  0.00  0.00    +0.010 A 
ATOM      2  C   LIG    1        1.187   2.077   0.002  0.00  0.00    -0.004 A 
ATOM      3  C   LIG    1        2.410   1.393  -0.013  0.00  0.00    +0.010 A 
ATOM      4  C   LIG    1        2.428   0.029  -0.020  0.00  0.00    +0.010 A 
ATOM      5  C   LIG    1        1.225  -0.688  -0.012  0.00  0.00    -0.004 A 
ATOM      6  C   LIG    1        0.002  -0.004   0.002  0.00  0.00    +0.010 A 
ENDROOT
BRANCH   2   7
ATOM      7  C   LIG    1        1.167   3.546   0.009  0.00  0.00    +0.156 C 
ATOM      8  N   LIG    1        2.289   4.215   0.002  0.00  0.00    -0.119 NA
BRANCH   8   9
ATOM      9  N   LIG    1        2.272   5.504   0.009  0.00  0.00    -0.158 N 
ATOM     10  H   LIG    1        1.425   5.978   0.019  0.00  0.00    +0.292 HD
ATOM     11  C   LIG    1        3.405   6.179   0.002  0.00  0.00    +0.365 C 
BRANCH  11  12
ATOM     12  N   LIG    1        3.386   7.550   0.009  0.00  0.00    -0.290 N 
ATOM     13  H   LIG    1        4.219   8.047   0.004  0.00  0.00    +0.255 HD
ATOM     14  H   LIG    1        2.539   8.024   0.019  0.00  0.00    +0.255 HD
ENDBRANCH  11  12
BRANCH  11  15
ATOM     15  N   LIG    1        4.601   5.510  -0.013  0.00  0.00    -0.290 N 
ATOM     16  H   LIG    1        5.435   6.006  -0.018  0.00  0.00    +0.255 HD
ATOM     17  H   LIG    1        4.615   4.540  -0.018  0.00  0.00    +0.255 HD
ENDBRANCH  11  15
ENDBRANCH   8   9
ENDBRANCH   2   7
BRANCH   5  18
ATOM     18  C   LIG    1        1.245  -2.157  -0.020  0.00  0.00    +0.156 C 
ATOM     19  N   LIG    1        0.122  -2.825  -0.012  0.00  0.00    -0.119 NA
BRANCH  19  20
ATOM     20  N   LIG    1        0.140  -4.115  -0.020  0.00  0.00    -0.158 N 
ATOM     21  H   LIG    1        0.986  -4.589  -0.031  0.00  0.00    +0.292 HD
ATOM     22  C   LIG    1       -0.993  -4.790  -0.012  0.00  0.00    +0.365 C 
BRANCH  22  23
ATOM     23  N   LIG    1       -0.974  -6.161  -0.020  0.00  0.00    -0.290 N 
ATOM     24  H   LIG    1       -1.808  -6.657  -0.014  0.00  0.00    +0.255 HD
ATOM     25  H   LIG    1       -0.128  -6.635  -0.031  0.00  0.00    +0.255 HD
ENDBRANCH  22  23
BRANCH  22  26
ATOM     26  N   LIG    1       -2.190  -4.120   0.005  0.00  0.00    -0.290 N 
ATOM     27  H   LIG    1       -3.023  -4.617   0.011  0.00  0.00    +0.255 HD
ATOM     28  H   LIG    1       -2.203  -3.150   0.010  0.00  0.00    +0.255 HD
ENDBRANCH  22  26
ENDBRANCH  19  20
ENDBRANCH   5  18
TORSDOF 8
