REMARK  Name = ZINC08432228
REMARK                            x       y       z     vdW  Elec       q    Type
REMARK                         _______ _______ _______ _____ _____    ______ ____
ROOT
ATOM      1  C   LIG    1        6.462   7.464   2.171  0.00  0.00    +0.095 A 
ATOM      2  C   LIG    1        7.878   7.777   2.224  0.00  0.00    +0.005 A 
ATOM      3  C   LIG    1        8.739   6.744   2.043  0.00  0.00    +0.056 A 
ATOM      4  S   LIG    1        7.659   5.348   1.808  0.00  0.00    -0.080 S 
ATOM      5  C   LIG    1        6.124   6.136   1.950  0.00  0.00    +0.086 A 
ENDROOT
BRANCH   2   6
ATOM      6  C   LIG    1        8.360   9.159   2.459  0.00  0.00    -0.013 A 
ATOM      7  C   LIG    1        7.855  10.214   1.700  0.00  0.00    +0.012 A 
ATOM      8  C   LIG    1        8.301  11.501   1.923  0.00  0.00    +0.050 A 
ATOM      9  C   LIG    1        9.260  11.747   2.893  0.00  0.00    +0.162 A 
ATOM     10  C   LIG    1        9.773  10.697   3.650  0.00  0.00    +0.162 A 
ATOM     11  C   LIG    1        9.325   9.406   3.435  0.00  0.00    +0.058 A 
BRANCH   9  12
ATOM     12  O   LIG    1        9.701  13.015   3.106  0.00  0.00    -0.491 OA
ATOM     13  C   LIG    1        9.133  14.045   2.293  0.00  0.00    +0.277 C 
ENDBRANCH   9  12
BRANCH  10  14
ATOM     14  O   LIG    1       10.714  10.940   4.602  0.00  0.00    -0.491 OA
ATOM     15  C   LIG    1       11.195   9.816   5.341  0.00  0.00    +0.277 C 
ENDBRANCH  10  14
ENDBRANCH   2   6
BRANCH   5  16
ATOM     16  N   LIG    1        4.860   5.575   1.859  0.00  0.00    -0.279 N 
ATOM     17  H   LIG    1        4.074   6.134   1.958  0.00  0.00    +0.155 HD
ATOM     18  C   LIG    1        4.723   4.254   1.633  0.00  0.00    +0.216 C 
ATOM     19  O   LIG    1        5.707   3.555   1.508  0.00  0.00    -0.276 OA
BRANCH  18  20
ATOM     20  C   LIG    1        3.349   3.644   1.534  0.00  0.00    +0.077 C 
BRANCH  20  21
ATOM     21  C   LIG    1        3.474   2.142   1.275  0.00  0.00    -0.070 C 
BRANCH  21  22
ATOM     22  N   LIG    1        2.120   1.556   1.203  0.00  0.00    +0.380 N 
ATOM     23  H   LIG    1        1.590   1.839   2.037  0.00  0.00    -0.082 HD
ATOM     24  C   LIG    1        2.208   0.081   1.168  0.00  0.00    -0.079 C 
ATOM     25  C   LIG    1        0.794  -0.503   1.214  0.00  0.00    -0.016 C 
ATOM     26  C   LIG    1        0.002  -0.004   0.002  0.00  0.00    -0.018 C 
ATOM     27  C   LIG    1       -1.431  -0.535   0.074  0.00  0.00    +0.007 C 
ATOM     28  C   LIG    1       -0.019   1.527   0.010  0.00  0.00    -0.016 C 
ATOM     29  C   LIG    1        1.419   2.052  -0.001  0.00  0.00    -0.079 C 
ENDBRANCH  21  22
ENDBRANCH  20  21
ENDBRANCH  18  20
ENDBRANCH   5  16
BRANCH   1  30
ATOM     30  C   LIG    1        5.441   8.497   2.345  0.00  0.00    +0.342 C 
ATOM     31  O   LIG    1        5.019   8.754   3.457  0.00  0.00    -0.245 OA
BRANCH  30  32
ATOM     32  O   LIG    1        4.968   9.165   1.273  0.00  0.00    -0.461 OA
BRANCH  32  34
ATOM     33  C   LIG    1        3.544  10.822   0.196  0.00  0.00    +0.048 C 
ATOM     34  C   LIG    1        3.955  10.177   1.521  0.00  0.00    +0.229 C 
ENDBRANCH  32  34
ENDBRANCH  30  32
ENDBRANCH   1  30
TORSDOF 10
