REMARK  Name = ZINC08214722
REMARK                            x       y       z     vdW  Elec       q    Type
REMARK                         _______ _______ _______ _____ _____    ______ ____
ROOT
ATOM      1  C   LIG    1        1.410   3.517   0.020  0.00  0.00    +0.005 C 
ATOM      2  C   LIG    1        1.421   1.988  -0.001  0.00  0.00    -0.031 C 
ATOM      3  C   LIG    1        2.130   1.496  -1.264  0.00  0.00    +0.002 C 
ATOM      4  C   LIG    1        2.091  -0.036  -1.303  0.00  0.00    +0.016 C 
ATOM      5  C   LIG    1        0.640  -0.495  -1.214  0.00  0.00    +0.040 C 
ATOM      6  N   LIG    1       -0.000  -0.007   0.006  0.00  0.00    +0.399 N 
ATOM      7  H   LIG    1       -0.964  -0.360   0.049  0.00  0.00    -0.082 HD
ATOM      8  H   LIG    1        0.524  -0.344   0.823  0.00  0.00    -0.082 HD
ATOM      9  C   LIG    1        0.556  -2.038  -1.325  0.00  0.00    +0.006 C 
ATOM     10  C   LIG    1        0.824  -2.711   0.023  0.00  0.00    +0.009 C 
ATOM     11  C   LIG    1       -0.910  -2.218  -1.767  0.00  0.00    +0.028 C 
ATOM     12  C   LIG    1       -1.154  -0.937  -2.631  0.00  0.00    +0.121 C 
ATOM     13  C   LIG    1       -1.071  -1.448  -4.100  0.00  0.00    +0.036 C 
ATOM     14  C   LIG    1       -1.823  -2.773  -3.948  0.00  0.00    +0.001 C 
ATOM     15  C   LIG    1       -1.775  -3.767  -5.085  0.00  0.00    +0.000 C 
ATOM     16  C   LIG    1       -2.483  -3.144  -6.304  0.00  0.00    +0.031 C 
ATOM     17  C   LIG    1       -2.730  -4.192  -7.342  0.00  0.00    -0.027 C 
ATOM     18  C   LIG    1       -2.780  -5.474  -7.099  0.00  0.00    -0.065 C 
ATOM     19  C   LIG    1       -2.584  -6.052  -5.727  0.00  0.00    -0.008 C 
ATOM     20  C   LIG    1       -1.218  -6.737  -5.710  0.00  0.00    +0.016 C 
ATOM     21  C   LIG    1       -3.662  -7.096  -5.442  0.00  0.00    +0.014 C 
ATOM     22  C   LIG    1       -3.726  -8.134  -6.551  0.00  0.00    +0.032 C 
ATOM     23  C   LIG    1       -3.990  -7.516  -7.908  0.00  0.00    +0.119 C 
ATOM     24  C   LIG    1       -3.037  -6.398  -8.264  0.00  0.00    +0.062 C 
ATOM     25  C   LIG    1       -2.620  -4.976  -4.652  0.00  0.00    +0.003 C 
ATOM     26  C   LIG    1       -2.285  -5.519  -3.279  0.00  0.00    +0.005 C 
ATOM     27  C   LIG    1       -2.156  -4.440  -2.193  0.00  0.00    +0.007 C 
ATOM     28  C   LIG    1       -1.168  -3.392  -2.687  0.00  0.00    -0.023 C 
ATOM     29  C   LIG    1        0.122  -4.102  -3.061  0.00  0.00    +0.012 C 
ATOM     30  O   LIG    1       -0.084  -0.030  -2.369  0.00  0.00    -0.388 OA
ATOM     31  C   LIG    1       -0.018   1.470   0.010  0.00  0.00    -0.075 C 
ENDROOT
BRANCH  23  32
ATOM     32  O   LIG    1       -3.883  -8.539  -8.901  0.00  0.00    -0.391 OA
ATOM     33  H   LIG    1       -4.038  -8.228  -9.804  0.00  0.00    +0.210 HD
ENDBRANCH  23  32
TORSDOF 1
