REMARK  Name = ZINC06858682
REMARK                            x       y       z     vdW  Elec       q    Type
REMARK                         _______ _______ _______ _____ _____    ______ ____
ROOT
ATOM      1  N   LIG    1        1.200  -2.088  -0.022  0.00  0.00    -0.214 N 
ATOM      2  H   LIG    1        2.054  -2.577  -0.033  0.00  0.00    +0.174 HD
ENDROOT
BRANCH   1  11
ATOM      3  C   LIG    1       -0.017   1.387   0.010  0.00  0.00    +0.003 A 
ATOM      4  C   LIG    1        1.141   2.104   0.003  0.00  0.00    +0.010 A 
ATOM      5  C   LIG    1        2.377   1.438  -0.013  0.00  0.00    +0.002 A 
ATOM      6  C   LIG    1        3.592   2.150  -0.020  0.00  0.00    +0.011 A 
ATOM      7  C   LIG    1        4.757   1.437  -0.035  0.00  0.00    +0.020 A 
ATOM      8  C   LIG    1        4.719   0.044  -0.042  0.00  0.00    +0.111 A 
ATOM      9  N   LIG    1        3.586  -0.615  -0.035  0.00  0.00    -0.253 NA
ATOM     10  C   LIG    1        2.412   0.022  -0.021  0.00  0.00    +0.093 A 
ATOM     11  C   LIG    1        1.195  -0.694  -0.013  0.00  0.00    +0.074 A 
ATOM     12  C   LIG    1        0.002  -0.004   0.002  0.00  0.00    +0.026 A 
ENDBRANCH   1  11
BRANCH   1  13
ATOM     13  S   LIG    1       -0.231  -2.921  -0.013  0.00  0.00    +0.079 S 
ATOM     14  O   LIG    1       -0.871  -2.642  -1.251  0.00  0.00    -0.149 OA
ATOM     15  O   LIG    1       -0.848  -2.657   1.240  0.00  0.00    -0.149 OA
BRANCH  13  16
ATOM     16  C   LIG    1        0.165  -4.638  -0.027  0.00  0.00    +0.147 A 
ATOM     17  C   LIG    1        0.362  -5.477   1.019  0.00  0.00    +0.038 A 
ATOM     18  C   LIG    1        0.667  -6.802   0.768  0.00  0.00    +0.030 A 
ATOM     19  C   LIG    1        0.761  -7.222  -0.519  0.00  0.00    +0.080 A 
ATOM     20 CL   LIG    1        1.126  -8.807  -1.127  0.00  0.00    -0.076 Cl
ATOM     21  S   LIG    1        0.404  -5.725  -1.423  0.00  0.00    -0.057 S 
ENDBRANCH  13  16
ENDBRANCH   1  13
TORSDOF 3
