REMARK  Name = ZINC06941598
REMARK                            x       y       z     vdW  Elec       q    Type
REMARK                         _______ _______ _______ _____ _____    ______ ____
ROOT
ATOM      1  C   LIG    1       -0.970  -2.444  -1.422  0.00  0.00    +0.234 C 
ATOM      2  N   LIG    1       -1.300  -3.342  -2.372  0.00  0.00    -0.310 N 
ATOM      3  H   LIG    1       -2.167  -3.294  -2.804  0.00  0.00    +0.149 HD
ATOM      4  O   LIG    1        0.114  -2.503  -0.881  0.00  0.00    -0.274 OA
ENDROOT
BRANCH   1   6
ATOM      5  N   LIG    1       -1.372  -0.511   0.012  0.00  0.00    -0.287 N 
ATOM      6  C   LIG    1       -1.948  -1.365  -1.033  0.00  0.00    +0.163 C 
ATOM      7  C   LIG    1       -3.213  -1.990  -0.405  0.00  0.00    +0.041 C 
ATOM      8  C   LIG    1       -3.579  -0.944   0.673  0.00  0.00    +0.098 C 
ATOM      9  C   LIG    1       -2.267  -0.259   0.984  0.00  0.00    +0.216 C 
ATOM     10  O   LIG    1       -2.053   0.422   1.965  0.00  0.00    -0.276 OA
BRANCH   5  12
ATOM     11  C   LIG    1       -0.019   1.526   0.010  0.00  0.00    +0.028 C 
ATOM     12  C   LIG    1        0.002  -0.004   0.002  0.00  0.00    +0.071 C 
ATOM     13  C   LIG    1        0.742  -0.511   1.242  0.00  0.00    +0.028 C 
ENDBRANCH   5  12
ENDBRANCH   1   6
BRANCH   2  14
ATOM     14  C   LIG    1       -0.349  -4.390  -2.750  0.00  0.00    +0.141 C 
BRANCH  14  15
ATOM     15  C   LIG    1       -0.957  -5.256  -3.823  0.00  0.00    -0.012 A 
ATOM     16  C   LIG    1       -1.520  -6.474  -3.492  0.00  0.00    +0.009 A 
ATOM     17  C   LIG    1       -2.078  -7.269  -4.475  0.00  0.00    +0.039 A 
ATOM     18  C   LIG    1       -2.073  -6.846  -5.793  0.00  0.00    +0.125 A 
ATOM     19  F   LIG    1       -2.617  -7.623  -6.755  0.00  0.00    -0.205 F 
ATOM     20  C   LIG    1       -1.510  -5.625  -6.125  0.00  0.00    +0.058 A 
ATOM     21  C   LIG    1       -0.956  -4.829  -5.139  0.00  0.00    +0.048 A 
ATOM     22 CL   LIG    1       -0.255  -3.296  -5.553  0.00  0.00    -0.083 Cl
ENDBRANCH  14  15
ENDBRANCH   2  14
TORSDOF 4
