REMARK  Name = ZINC08214428
REMARK                            x       y       z     vdW  Elec       q    Type
REMARK                         _______ _______ _______ _____ _____    ______ ____
ROOT
ATOM      1  C   LIG    1       -0.729   1.579   1.267  0.00  0.00    +0.239 C 
ENDROOT
BRANCH   1   2
ATOM      2  C   LIG    1       -0.013   1.086   0.008  0.00  0.00    +0.279 C 
BRANCH   2   3
ATOM      3  O   LIG    1       -0.715   1.567  -1.168  0.00  0.00    -0.461 OA
BRANCH   3   4
ATOM      4  C   LIG    1       -0.211   1.220  -2.363  0.00  0.00    +0.307 C 
ATOM      5  O   LIG    1        0.783   0.536  -2.424  0.00  0.00    -0.251 OA
BRANCH   4   6
ATOM      6  C   LIG    1       -0.887   1.682  -3.629  0.00  0.00    +0.120 C 
BRANCH   6   7
ATOM      7  C   LIG    1       -0.117   1.152  -4.840  0.00  0.00    +0.011 C 
BRANCH   7   8
ATOM      8  C   LIG    1       -0.803   1.621  -6.125  0.00  0.00    +0.001 C 
BRANCH   8   9
ATOM      9  C   LIG    1       -0.033   1.091  -7.337  0.00  0.00    +0.000 C 
BRANCH   9  10
ATOM     10  C   LIG    1       -0.719   1.561  -8.621  0.00  0.00    -0.000 C 
BRANCH  10  12
ATOM     11  C   LIG    1       -0.635   1.500 -11.118  0.00  0.00    +0.004 C 
ATOM     12  C   LIG    1        0.051   1.030  -9.833  0.00  0.00    -0.003 C 
ENDBRANCH  10  12
ENDBRANCH   9  10
ENDBRANCH   8   9
ENDBRANCH   7   8
ENDBRANCH   6   7
ENDBRANCH   4   6
ENDBRANCH   3   4
ENDBRANCH   2   3
ENDBRANCH   1   2
BRANCH   1  13
ATOM     13  O   LIG    1       -0.645   3.027   1.335  0.00  0.00    -0.456 OA
BRANCH  13  14
ATOM     14  C   LIG    1       -0.635   3.580   2.558  0.00  0.00    +0.308 C 
ATOM     15  O   LIG    1       -0.693   2.877   3.539  0.00  0.00    -0.251 OA
BRANCH  14  16
ATOM     16  C   LIG    1       -0.550   5.077   2.707  0.00  0.00    +0.120 C 
BRANCH  16  17
ATOM     17  C   LIG    1       -0.555   5.443   4.193  0.00  0.00    +0.011 C 
BRANCH  17  18
ATOM     18  C   LIG    1       -0.469   6.963   4.345  0.00  0.00    +0.001 C 
BRANCH  18  19
ATOM     19  C   LIG    1       -0.474   7.328   5.831  0.00  0.00    +0.000 C 
BRANCH  19  20
ATOM     20  C   LIG    1       -0.388   8.848   5.982  0.00  0.00    -0.000 C 
BRANCH  20  21
ATOM     21  C   LIG    1       -0.393   9.213   7.468  0.00  0.00    -0.003 C 
ATOM     22  C   LIG    1       -0.307  10.733   7.620  0.00  0.00    +0.004 C 
ENDBRANCH  20  21
ENDBRANCH  19  20
ENDBRANCH  18  19
ENDBRANCH  17  18
ENDBRANCH  16  17
ENDBRANCH  14  16
ENDBRANCH  13  14
ENDBRANCH   1  13
BRANCH   1  23
ATOM     23  C   LIG    1       -2.198   1.155   1.217  0.00  0.00    +0.203 C 
BRANCH  23  24
ATOM     24  O   LIG    1       -2.789   1.625   0.004  0.00  0.00    -0.391 OA
ATOM     25  H   LIG    1       -3.722   1.392  -0.095  0.00  0.00    +0.210 HD
ENDBRANCH  23  24
ENDBRANCH   1  23
TORSDOF 19
