REMARK  Name = ZINC06347226
REMARK                            x       y       z     vdW  Elec       q    Type
REMARK                         _______ _______ _______ _____ _____    ______ ____
ROOT
ATOM      1  C   LIG    1        3.677   2.040  -0.024  0.00  0.00    +0.098 A 
ATOM      2  C   LIG    1        4.849   1.335  -0.034  0.00  0.00    +0.078 A 
ATOM      3  S   LIG    1        6.039   2.669  -0.045  0.00  0.00    -0.060 S 
ATOM      4  C   LIG    1        4.864   4.016  -0.025  0.00  0.00    +0.165 A 
ATOM      5  N   LIG    1        3.716   3.365  -0.016  0.00  0.00    -0.223 NA
ENDROOT
BRANCH   1  10
ATOM      6  C   LIG    1       -0.017   1.384   0.010  0.00  0.00    +0.004 A 
ATOM      7  C   LIG    1        0.002  -0.004   0.002  0.00  0.00    +0.020 A 
ATOM      8  C   LIG    1        1.215  -0.666  -0.013  0.00  0.00    +0.111 A 
ATOM      9  N   LIG    1        2.351   0.003  -0.021  0.00  0.00    -0.253 NA
ATOM     10  C   LIG    1        2.377   1.330  -0.014  0.00  0.00    +0.090 A 
ATOM     11  C   LIG    1        1.189   2.061   0.002  0.00  0.00    +0.030 A 
ENDBRANCH   1  10
BRANCH   4  12
ATOM     12  N   LIG    1        5.097   5.385  -0.020  0.00  0.00    -0.261 N 
ATOM     13  H   LIG    1        4.350   6.004  -0.009  0.00  0.00    +0.157 HD
ATOM     14  C   LIG    1        6.361   5.853  -0.030  0.00  0.00    +0.250 C 
ATOM     15  O   LIG    1        7.296   5.078  -0.044  0.00  0.00    -0.270 OA
BRANCH  14  16
ATOM     16  C   LIG    1        6.608   7.311  -0.025  0.00  0.00    +0.038 A 
ATOM     17  C   LIG    1        7.916   7.799  -0.036  0.00  0.00    +0.013 A 
ATOM     18  C   LIG    1        8.141   9.160  -0.031  0.00  0.00    +0.002 A 
ATOM     19  C   LIG    1        7.075  10.041  -0.016  0.00  0.00    +0.020 A 
ATOM     20  C   LIG    1        5.775   9.564  -0.006  0.00  0.00    +0.042 A 
ATOM     21 CL   LIG    1        4.443  10.677   0.012  0.00  0.00    -0.084 Cl
ATOM     22  C   LIG    1        5.536   8.204  -0.015  0.00  0.00    +0.033 A 
ENDBRANCH  14  16
ENDBRANCH   4  12
TORSDOF 3
