REMARK  Name = ZINC06792642
REMARK                            x       y       z     vdW  Elec       q    Type
REMARK                         _______ _______ _______ _____ _____    ______ ____
ROOT
ATOM      1  S   LIG    1       -3.759  -0.712   0.034  0.00  0.00    +0.103 S 
ATOM      2  O   LIG    1       -3.849  -1.395   1.277  0.00  0.00    -0.146 OA
ATOM      3  O   LIG    1       -3.873  -1.382  -1.214  0.00  0.00    -0.146 OA
ENDROOT
BRANCH   1   4
ATOM      4  C   LIG    1       -5.004   0.534   0.053  0.00  0.00    +0.113 A 
ATOM      5  C   LIG    1       -5.474   1.018   1.273  0.00  0.00    +0.029 A 
ATOM      6  C   LIG    1       -6.435   1.980   1.322  0.00  0.00    +0.010 A 
ATOM      7  C   LIG    1       -6.964   2.496   0.127  0.00  0.00    -0.018 A 
ATOM      8  C   LIG    1       -7.957   3.490   0.138  0.00  0.00    +0.008 A 
ATOM      9  C   LIG    1       -8.446   3.967  -1.039  0.00  0.00    +0.001 A 
ATOM     10  C   LIG    1       -7.976   3.484  -2.259  0.00  0.00    +0.001 A 
ATOM     11  C   LIG    1       -7.015   2.522  -2.308  0.00  0.00    +0.008 A 
ATOM     12  C   LIG    1       -6.486   2.005  -1.113  0.00  0.00    -0.016 A 
ATOM     13  C   LIG    1       -5.489   1.015  -1.125  0.00  0.00    +0.037 A 
ENDBRANCH   1   4
BRANCH   1  15
ATOM     14  C   LIG    1       -1.193  -0.634   0.010  0.00  0.00    +0.298 C 
ATOM     15  N   LIG    1       -2.294   0.060   0.024  0.00  0.00    -0.076 NA
BRANCH  14  16
ATOM     16  N   LIG    1       -1.246  -2.006   0.003  0.00  0.00    -0.312 N 
ATOM     17  H   LIG    1       -2.105  -2.458   0.009  0.00  0.00    +0.147 HD
ATOM     18  H   LIG    1       -0.426  -2.523  -0.007  0.00  0.00    +0.147 HD
ENDBRANCH  14  16
BRANCH  14  20
ATOM     19  C   LIG    1       -0.017   1.425   0.010  0.00  0.00    +0.280 C 
ATOM     20  O   LIG    1        0.002  -0.004   0.002  0.00  0.00    -0.468 OA
ENDBRANCH  14  20
ENDBRANCH   1  15
TORSDOF 4
