REMARK  Name = ZINC06718473
REMARK                            x       y       z     vdW  Elec       q    Type
REMARK                         _______ _______ _______ _____ _____    ______ ____
ROOT
ATOM      1  O   LIG    1        2.892   0.814  -1.369  0.00  0.00    -0.487 OA
ENDROOT
BRANCH   1  13
ATOM      2  C   LIG    1        3.695   0.348  -4.037  0.00  0.00    +0.048 C 
ATOM      3  C   LIG    1        4.509  -0.104  -2.852  0.00  0.00    -0.005 A 
ATOM      4  C   LIG    1        5.697  -0.768  -3.047  0.00  0.00    -0.033 A 
ATOM      5  C   LIG    1        6.185  -1.043  -4.447  0.00  0.00    +0.045 C 
ATOM      6  C   LIG    1        6.454  -1.195  -1.943  0.00  0.00    +0.024 A 
ATOM      7  C   LIG    1        5.991  -0.933  -0.651  0.00  0.00    -0.032 A 
ATOM      8  C   LIG    1        6.970  -1.485   0.358  0.00  0.00    +0.047 C 
ATOM      9  C   LIG    1        8.106  -2.126  -0.451  0.00  0.00    +0.068 C 
ATOM     10  C   LIG    1        4.809  -0.266  -0.468  0.00  0.00    +0.050 A 
ATOM     11  C   LIG    1        7.733  -1.916  -1.899  0.00  0.00    +0.167 C 
ATOM     12  O   LIG    1        8.378  -2.281  -2.859  0.00  0.00    -0.292 OA
ATOM     13  C   LIG    1        4.062   0.155  -1.561  0.00  0.00    +0.124 A 
BRANCH   9  14
ATOM     14  C   LIG    1        8.200  -3.621  -0.139  0.00  0.00    -0.000 C 
ATOM     15  C   LIG    1        8.615  -3.829   1.332  0.00  0.00    +0.004 C 
ATOM     16  C   LIG    1        9.550  -5.063   1.292  0.00  0.00    +0.000 C 
ATOM     17  C   LIG    1       10.340  -4.851  -0.023  0.00  0.00    +0.000 C 
ATOM     18  C   LIG    1        9.297  -4.271  -1.001  0.00  0.00    +0.004 C 
ENDBRANCH   9  14
ENDBRANCH   1  13
BRANCH   1  19
ATOM     19  C   LIG    1        2.490   1.041  -0.016  0.00  0.00    +0.264 C 
BRANCH  19  20
ATOM     20  C   LIG    1        1.178   1.781   0.000  0.00  0.00    -0.010 A 
ATOM     21  C   LIG    1       -0.013   1.076   0.008  0.00  0.00    +0.007 A 
ATOM     22  C   LIG    1       -1.221   1.748   0.017  0.00  0.00    +0.001 A 
ATOM     23  C   LIG    1       -1.246   3.128   0.031  0.00  0.00    +0.008 A 
ATOM     24  C   LIG    1       -0.050   3.844   0.024  0.00  0.00    -0.018 A 
ATOM     25  C   LIG    1        1.165   3.161   0.008  0.00  0.00    +0.015 A 
BRANCH  24  26
ATOM     26  C   LIG    1       -0.070   5.327   0.033  0.00  0.00    -0.018 A 
ATOM     27  C   LIG    1        1.129   6.040   0.032  0.00  0.00    +0.009 A 
ATOM     28  C   LIG    1        1.112   7.416   0.035  0.00  0.00    +0.015 A 
ATOM     29  C   LIG    1       -0.108   8.099   0.050  0.00  0.00    +0.059 A 
ATOM     30  C   LIG    1       -1.308   7.383   0.057  0.00  0.00    +0.015 A 
ATOM     31  C   LIG    1       -1.288   6.007   0.048  0.00  0.00    +0.009 A 
BRANCH  29  32
ATOM     32  C   LIG    1       -0.128   9.575   0.059  0.00  0.00    +0.337 C 
ATOM     33  O   LIG    1       -1.188  10.168   0.073  0.00  0.00    -0.245 OA
BRANCH  32  34
ATOM     34  O   LIG    1        1.030  10.264   0.053  0.00  0.00    -0.477 OA
ATOM     35  H   LIG    1        1.848   9.807   0.042  0.00  0.00    +0.295 HD
ENDBRANCH  32  34
ENDBRANCH  29  32
ENDBRANCH  24  26
ENDBRANCH  19  20
ENDBRANCH   1  19
TORSDOF 7
