REMARK  Name = ZINC06219291
REMARK                            x       y       z     vdW  Elec       q    Type
REMARK                         _______ _______ _______ _____ _____    ______ ____
ROOT
ATOM      1  C   LIG    1        2.872  -6.834  -0.065  0.00  0.00    +0.160 A 
ATOM      2  N   LIG    1        1.652  -6.318  -0.050  0.00  0.00    -0.133 NA
ATOM      3  N   LIG    1        1.454  -5.073  -0.041  0.00  0.00    -0.125 NA
ATOM      4  C   LIG    1        2.452  -4.204  -0.045  0.00  0.00    +0.189 A 
ATOM      5  S   LIG    1        3.844  -5.330  -0.072  0.00  0.00    -0.024 S 
ENDROOT
BRANCH   4   6
ATOM      6  N   LIG    1        2.428  -2.813  -0.037  0.00  0.00    -0.259 N 
ATOM      7  H   LIG    1        3.259  -2.313  -0.042  0.00  0.00    +0.157 HD
ATOM      8  C   LIG    1        1.249  -2.160  -0.022  0.00  0.00    +0.250 C 
ATOM      9  O   LIG    1        0.207  -2.786  -0.016  0.00  0.00    -0.270 OA
BRANCH   8  10
ATOM     10  C   LIG    1        1.222  -0.683  -0.013  0.00  0.00    +0.037 A 
ATOM     11  C   LIG    1        0.002  -0.004   0.002  0.00  0.00    +0.016 A 
ATOM     12  C   LIG    1       -0.017   1.374   0.010  0.00  0.00    +0.039 A 
ATOM     13  C   LIG    1        1.173   2.086   0.002  0.00  0.00    +0.123 A 
ATOM     14  F   LIG    1        1.149   3.437   0.010  0.00  0.00    -0.205 F 
ATOM     15  C   LIG    1        2.387   1.417  -0.013  0.00  0.00    +0.039 A 
ATOM     16  C   LIG    1        2.418   0.039  -0.021  0.00  0.00    +0.016 A 
ENDBRANCH   8  10
ENDBRANCH   4   6
BRANCH   1  17
ATOM     17  S   LIG    1        3.390  -8.518  -0.080  0.00  0.00    -0.092 S 
BRANCH  17  18
ATOM     18  C   LIG    1        1.837  -9.455  -0.071  0.00  0.00    +0.111 C 
BRANCH  18  25
ATOM     19  C   LIG    1        2.263 -11.601  -1.286  0.00  0.00    +0.007 A 
ATOM     20  C   LIG    1        2.546 -12.954  -1.298  0.00  0.00    +0.038 A 
ATOM     21  C   LIG    1        2.697 -13.640  -0.105  0.00  0.00    +0.123 A 
ATOM     22  F   LIG    1        2.970 -14.963  -0.116  0.00  0.00    -0.205 F 
ATOM     23  C   LIG    1        2.570 -12.969   1.099  0.00  0.00    +0.038 A 
ATOM     24  C   LIG    1        2.291 -11.615   1.109  0.00  0.00    +0.007 A 
ATOM     25  C   LIG    1        2.141 -10.931  -0.083  0.00  0.00    -0.037 A 
ENDBRANCH  18  25
ENDBRANCH  17  18
ENDBRANCH   1  17
TORSDOF 5
