REMARK  Name = ZINC08132941
REMARK                            x       y       z     vdW  Elec       q    Type
REMARK                         _______ _______ _______ _____ _____    ______ ____
ROOT
ATOM      1  S   LIG    1        2.025  -1.241  -3.788  0.00  0.00    +0.076 S 
ATOM      2  O   LIG    1        0.979  -0.310  -4.029  0.00  0.00    -0.150 OA
ATOM      3  O   LIG    1        2.722  -1.892  -4.841  0.00  0.00    -0.150 OA
ENDROOT
BRANCH   1  10
ATOM      4  C   LIG    1        0.646  -2.178  -1.622  0.00  0.00    +0.147 A 
ATOM      5  C   LIG    1        0.107  -3.180  -0.827  0.00  0.00    +0.049 A 
ATOM      6  C   LIG    1        0.273  -4.505  -1.179  0.00  0.00    +0.024 A 
ATOM      7  C   LIG    1        0.976  -4.834  -2.325  0.00  0.00    +0.043 A 
ATOM      8 CL   LIG    1        1.184  -6.500  -2.766  0.00  0.00    -0.083 Cl
ATOM      9  C   LIG    1        1.515  -3.837  -3.118  0.00  0.00    +0.052 A 
ATOM     10  C   LIG    1        1.346  -2.510  -2.772  0.00  0.00    +0.151 A 
BRANCH   4  11
ATOM     11  O   LIG    1        0.484  -0.874  -1.276  0.00  0.00    -0.490 OA
BRANCH  11  13
ATOM     12  C   LIG    1       -0.344   0.901   0.140  0.00  0.00    +0.048 C 
ATOM     13  C   LIG    1       -0.154  -0.608  -0.026  0.00  0.00    +0.226 C 
ENDBRANCH  11  13
ENDBRANCH   4  11
ENDBRANCH   1  10
BRANCH   1  14
ATOM     14  N   LIG    1        3.165  -0.449  -2.885  0.00  0.00    -0.215 N 
ATOM     15  H   LIG    1        3.043   0.488  -2.664  0.00  0.00    +0.174 HD
BRANCH  14  16
ATOM     16  C   LIG    1        4.302  -1.129  -2.442  0.00  0.00    +0.066 A 
ATOM     17  C   LIG    1        4.723  -1.015  -1.120  0.00  0.00    +0.027 A 
ATOM     18  C   LIG    1        5.856  -1.709  -0.728  0.00  0.00    +0.022 A 
ATOM     19  C   LIG    1        6.527  -2.486  -1.655  0.00  0.00    +0.111 A 
ATOM     20  N   LIG    1        6.102  -2.573  -2.900  0.00  0.00    -0.261 NA
ATOM     21  C   LIG    1        5.025  -1.934  -3.313  0.00  0.00    +0.135 A 
ENDBRANCH  14  16
ENDBRANCH   1  14
TORSDOF 5
