REMARK  Name = ZINC06521293
REMARK                            x       y       z     vdW  Elec       q    Type
REMARK                         _______ _______ _______ _____ _____    ______ ____
ROOT
ATOM      1  C   LIG    1       -1.661   4.753   2.861  0.00  0.00    +0.226 C 
ATOM      2  C   LIG    1       -3.155   5.131   2.828  0.00  0.00    +0.088 C 
ATOM      3  C   LIG    1       -3.422   5.742   4.226  0.00  0.00    +0.149 C 
ATOM      4  C   LIG    1       -1.997   6.142   4.684  0.00  0.00    +0.173 C 
ATOM      5  O   LIG    1       -1.167   5.077   4.172  0.00  0.00    -0.349 OA
ENDROOT
BRANCH   1   9
ATOM      6  C   LIG    1       -0.013   1.086   0.008  0.00  0.00    +0.051 C 
ATOM      7  C   LIG    1       -0.718   1.572   1.248  0.00  0.00    +0.030 A 
ATOM      8  C   LIG    1       -0.858   2.894   1.482  0.00  0.00    +0.101 A 
ATOM      9  N   LIG    1       -1.505   3.318   2.610  0.00  0.00    -0.274 N 
ATOM     10  C   LIG    1       -1.995   2.430   3.494  0.00  0.00    +0.331 A 
ATOM     11  N   LIG    1       -1.865   1.106   3.288  0.00  0.00    -0.275 N 
ATOM     12  H   LIG    1       -2.235   0.460   3.956  0.00  0.00    +0.173 HD
ATOM     13  O   LIG    1       -2.563   2.829   4.492  0.00  0.00    -0.246 OA
ATOM     14  C   LIG    1       -1.238   0.648   2.186  0.00  0.00    +0.257 A 
ATOM     15  O   LIG    1       -1.120  -0.550   1.999  0.00  0.00    -0.267 OA
ENDBRANCH   1   9
BRANCH   3  16
ATOM     16  O   LIG    1       -4.268   6.889   4.128  0.00  0.00    -0.389 OA
ATOM     17  H   LIG    1       -5.143   6.703   3.760  0.00  0.00    +0.210 HD
ENDBRANCH   3  16
BRANCH   4  18
ATOM     18  C   LIG    1       -1.919   6.203   6.211  0.00  0.00    +0.215 C 
BRANCH  18  19
ATOM     19  N   LIG    1       -0.600   6.697   6.613  0.00  0.00    -0.110 NA
ATOM     20  N   LIG    1       -0.514   7.641   7.218  0.00  0.00    -0.197 NA
ATOM     21  N   LIG    1       -0.428   8.584   7.824  0.00  0.00    -0.128 NA
ATOM     22  H   LIG    1       -1.068   9.318   7.684  0.00  0.00    +0.228 HD
ENDBRANCH  18  19
ENDBRANCH   4  18
TORSDOF 4
