REMARK  Name = ZINC06321960
REMARK                            x       y       z     vdW  Elec       q    Type
REMARK                         _______ _______ _______ _____ _____    ______ ____
ROOT
ATOM      1  C   LIG    1        2.563   1.328  -0.016  0.00  0.00    +0.149 C 
ENDROOT
BRANCH   1   8
ATOM      2  C   LIG    1        3.908   1.797  -2.074  0.00  0.00    +0.008 A 
ATOM      3  C   LIG    1        5.080   1.720  -2.802  0.00  0.00    +0.020 A 
ATOM      4  C   LIG    1        6.182   1.074  -2.272  0.00  0.00    +0.041 A 
ATOM      5 CL   LIG    1        7.653   0.971  -3.188  0.00  0.00    -0.084 Cl
ATOM      6  C   LIG    1        6.112   0.510  -1.010  0.00  0.00    +0.020 A 
ATOM      7  C   LIG    1        4.941   0.593  -0.281  0.00  0.00    +0.008 A 
ATOM      8  C   LIG    1        3.840   1.238  -0.812  0.00  0.00    -0.007 A 
ENDBRANCH   1   8
BRANCH   1   9
ATOM      9  C   LIG    1        2.089  -0.060   0.331  0.00  0.00    -0.007 A 
ATOM     10  C   LIG    1        2.765  -0.805   1.279  0.00  0.00    +0.008 A 
ATOM     11  C   LIG    1        2.327  -2.076   1.601  0.00  0.00    +0.020 A 
ATOM     12  C   LIG    1        1.218  -2.606   0.966  0.00  0.00    +0.041 A 
ATOM     13 CL   LIG    1        0.671  -4.205   1.365  0.00  0.00    -0.084 Cl
ATOM     14  C   LIG    1        0.545  -1.863   0.013  0.00  0.00    +0.020 A 
ATOM     15  C   LIG    1        0.981  -0.590  -0.304  0.00  0.00    +0.008 A 
ENDBRANCH   1   9
BRANCH   1  16
ATOM     16  C   LIG    1        2.815   2.103   1.252  0.00  0.00    +0.050 A 
ATOM     17  C   LIG    1        1.956   2.884   1.961  0.00  0.00    +0.036 A 
ATOM     18  C   LIG    1        2.462   3.486   3.092  0.00  0.00    +0.121 A 
ATOM     19  N   LIG    1        3.713   3.268   3.417  0.00  0.00    -0.218 NA
ATOM     20  S   LIG    1        4.273   2.232   2.179  0.00  0.00    +0.010 S 
ENDBRANCH   1  16
BRANCH   1  21
ATOM     21  O   LIG    1        1.564   1.993  -0.791  0.00  0.00    -0.375 OA
ATOM     22  H   LIG    1        1.351   1.549  -1.623  0.00  0.00    +0.211 HD
ENDBRANCH   1  21
TORSDOF 4
