REMARK  Name = ZINC06405865
REMARK                            x       y       z     vdW  Elec       q    Type
REMARK                         _______ _______ _______ _____ _____    ______ ____
ROOT
ATOM      1  S   LIG    1        2.618  -2.616  -4.580  0.00  0.00    +0.098 S 
ATOM      2  O   LIG    1        2.587  -1.683  -5.651  0.00  0.00    -0.148 OA
ATOM      3  O   LIG    1        2.051  -3.915  -4.685  0.00  0.00    -0.148 OA
ENDROOT
BRANCH   1   7
ATOM      4  C   LIG    1        0.606  -0.607  -1.056  0.00  0.00    +0.120 A 
ATOM      5  C   LIG    1        1.173   0.161  -2.062  0.00  0.00    +0.047 A 
ATOM      6  C   LIG    1        1.786  -0.455  -3.136  0.00  0.00    +0.032 A 
ATOM      7  C   LIG    1        1.835  -1.835  -3.209  0.00  0.00    +0.111 A 
ATOM      8  C   LIG    1        1.270  -2.602  -2.207  0.00  0.00    +0.032 A 
ATOM      9  C   LIG    1        0.661  -1.992  -1.128  0.00  0.00    +0.047 A 
BRANCH   4  11
ATOM     10  C   LIG    1       -0.017   1.425   0.010  0.00  0.00    +0.277 C 
ATOM     11  O   LIG    1        0.002  -0.004   0.002  0.00  0.00    -0.495 OA
ENDBRANCH   4  11
ENDBRANCH   1   7
BRANCH   1  12
ATOM     12  N   LIG    1        4.211  -2.826  -4.180  0.00  0.00    -0.070 N 
ATOM     13  H   LIG    1        4.905  -2.414  -4.719  0.00  0.00    +0.215 HD
BRANCH  12  14
ATOM     14  N   LIG    1        4.557  -3.599  -3.064  0.00  0.00    +0.026 NA
ATOM     15  C   LIG    1        5.807  -3.763  -2.750  0.00  0.00    +0.401 C 
BRANCH  15  16
ATOM     16  N   LIG    1        6.150  -4.528  -1.644  0.00  0.00    -0.288 N 
ATOM     17  H   LIG    1        7.083  -4.651  -1.410  0.00  0.00    +0.255 HD
ATOM     18  H   LIG    1        5.457  -4.940  -1.105  0.00  0.00    +0.255 HD
ENDBRANCH  15  16
BRANCH  15  19
ATOM     19  N   LIG    1        6.800  -3.174  -3.521  0.00  0.00    -0.288 N 
ATOM     20  H   LIG    1        7.733  -3.296  -3.287  0.00  0.00    +0.255 HD
ATOM     21  H   LIG    1        6.560  -2.639  -4.294  0.00  0.00    +0.255 HD
ENDBRANCH  15  19
ENDBRANCH  12  14
ENDBRANCH   1  12
TORSDOF 6
