REMARK  Name = ZINC06507046
REMARK                            x       y       z     vdW  Elec       q    Type
REMARK                         _______ _______ _______ _____ _____    ______ ____
ROOT
ATOM      1  C   LIG    1        1.455  -2.347  -2.527  0.00  0.00    +0.164 C 
ATOM      2  C   LIG    1        1.554  -3.727  -2.688  0.00  0.00    +0.040 C 
ATOM      3  C   LIG    1        2.197  -4.222  -3.818  0.00  0.00    +0.044 C 
ATOM      4  C   LIG    1        2.495  -5.569  -4.330  0.00  0.00    -0.022 A 
ATOM      5  C   LIG    1        2.235  -6.855  -3.862  0.00  0.00    +0.006 A 
ATOM      6  C   LIG    1        2.654  -7.947  -4.591  0.00  0.00    +0.000 A 
ATOM      7  C   LIG    1        3.331  -7.770  -5.788  0.00  0.00    +0.002 A 
ATOM      8  C   LIG    1        3.595  -6.504  -6.263  0.00  0.00    +0.023 A 
ATOM      9  C   LIG    1        3.180  -5.388  -5.542  0.00  0.00    +0.031 A 
ATOM     10  N   LIG    1        3.306  -4.030  -5.775  0.00  0.00    -0.339 N 
ATOM     11  H   LIG    1        3.742  -3.639  -6.548  0.00  0.00    +0.146 HD
ATOM     12  C   LIG    1        2.723  -3.312  -4.754  0.00  0.00    +0.092 C 
ATOM     13  C   LIG    1        2.579  -1.946  -4.512  0.00  0.00    +0.104 C 
ATOM     14  N   LIG    1        1.960  -1.518  -3.437  0.00  0.00    -0.302 NA
ATOM     15  H   LIG    1        1.872  -0.562  -3.298  0.00  0.00    +0.123 HD
ENDROOT
BRANCH   1  16
ATOM     16  C   LIG    1        0.776  -1.798  -1.335  0.00  0.00    +0.324 C 
ATOM     17  O   LIG    1        0.312  -2.549  -0.500  0.00  0.00    -0.249 OA
BRANCH  16  18
ATOM     18  O   LIG    1        0.671  -0.465  -1.174  0.00  0.00    -0.464 OA
BRANCH  18  20
ATOM     19  C   LIG    1       -0.019   1.526   0.010  0.00  0.00    +0.048 C 
ATOM     20  C   LIG    1        0.002  -0.004   0.002  0.00  0.00    +0.229 C 
ENDBRANCH  18  20
ENDBRANCH  16  18
ENDBRANCH   1  16
TORSDOF 3
