REMARK  Name = ZINC05996397
REMARK                            x       y       z     vdW  Elec       q    Type
REMARK                         _______ _______ _______ _____ _____    ______ ____
ROOT
ATOM      1  C   LIG    1       -0.718   1.572   1.248  0.00  0.00    +0.018 A 
ATOM      2  C   LIG    1       -1.492   2.717   1.199  0.00  0.00    +0.009 A 
ATOM      3  C   LIG    1       -2.140   3.165   2.334  0.00  0.00    +0.004 A 
ATOM      4  C   LIG    1       -2.018   2.469   3.522  0.00  0.00    +0.048 A 
ATOM      5  C   LIG    1       -1.244   1.321   3.576  0.00  0.00    +0.152 A 
ATOM      6  C   LIG    1       -0.596   0.869   2.433  0.00  0.00    +0.170 A 
ATOM      7  F   LIG    1        0.155  -0.253   2.480  0.00  0.00    -0.201 F 
ENDROOT
BRANCH   5   8
ATOM      8  O   LIG    1       -1.123   0.635   4.744  0.00  0.00    -0.504 OA
ATOM      9  H   LIG    1       -1.794  -0.049   4.869  0.00  0.00    +0.292 HD
ENDBRANCH   5   8
BRANCH   1  10
ATOM     10  C   LIG    1       -0.013   1.086   0.008  0.00  0.00    +0.130 C 
BRANCH  10  11
ATOM     11  O   LIG    1       -0.704   1.559  -1.150  0.00  0.00    -0.389 OA
ATOM     12  H   LIG    1       -0.756   2.523  -1.210  0.00  0.00    +0.210 HD
ENDBRANCH  10  11
BRANCH  10  13
ATOM     13  C   LIG    1        1.423   1.615  -0.003  0.00  0.00    -0.046 C 
BRANCH  13  15
ATOM     14  C   LIG    1        3.494   1.632  -1.256  0.00  0.00    -0.100 C 
ATOM     15  N   LIG    1        2.106   1.135  -1.219  0.00  0.00    +0.379 N 
ATOM     16  H   LIG    1        1.602   1.476  -2.047  0.00  0.00    -0.086 HD
ATOM     17  H   LIG    1        2.113   0.109  -1.221  0.00  0.00    -0.086 HD
ENDBRANCH  13  15
ENDBRANCH  10  13
ENDBRANCH   1  10
TORSDOF 5
