REMARK  Name = ZINC08075875
REMARK                            x       y       z     vdW  Elec       q    Type
REMARK                         _______ _______ _______ _____ _____    ______ ____
ROOT
ATOM      1  CA  LIG    1        1.235   3.094   0.007  0.00  0.00    +0.036 C 
ENDROOT
BRANCH   1   2
ATOM      2  N   LIG    1        2.547   3.561  -0.475  0.00  0.00    +0.387 N 
ATOM      3  H1  LIG    1        2.578   4.586  -0.430  0.00  0.00    -0.089 HD
ATOM      4  H2  LIG    1        2.691   3.265  -1.439  0.00  0.00    -0.089 HD
ATOM      5  H3  LIG    1        3.289   3.180   0.110  0.00  0.00    -0.089 HD
ENDBRANCH   1   2
BRANCH   1   6
ATOM      6  C   LIG    1        1.177   1.588  -0.001  0.00  0.00    +0.290 C 
ATOM      7  O   LIG    1        2.199   0.944  -0.014  0.00  0.00    -0.253 OA
BRANCH   6   8
ATOM      8  OXT LIG    1       -0.011   0.963   0.007  0.00  0.00    -0.482 OA
ATOM      9  HXT LIG    1       -0.804   1.462   0.018  0.00  0.00    +0.295 HD
ENDBRANCH   6   8
ENDBRANCH   1   6
BRANCH   1  10
ATOM     10  C   LIG    1        1.018   3.606   1.432  0.00  0.00    -0.001 C 
BRANCH  10  11
ATOM     11  C   LIG    1        0.953   5.135   1.421  0.00  0.00    +0.034 C 
BRANCH  11  15
ATOM     12  C   LIG    1        0.347   6.564   5.401  0.00  0.00    +0.000 A 
ATOM     13  C   LIG    1        1.630   6.384   4.919  0.00  0.00    +0.000 A 
ATOM     14  C   LIG    1        1.826   5.921   3.631  0.00  0.00    +0.003 A 
ATOM     15  C   LIG    1        0.739   5.638   2.825  0.00  0.00    -0.047 A 
ATOM     16  C   LIG    1       -0.544   5.823   3.305  0.00  0.00    +0.003 A 
ATOM     17  C   LIG    1       -0.740   6.281   4.595  0.00  0.00    +0.000 A 
ENDBRANCH  11  15
ENDBRANCH  10  11
ENDBRANCH   1  10
TORSDOF 6
