REMARK  Name = ZINC06028400
REMARK                            x       y       z     vdW  Elec       q    Type
REMARK                         _______ _______ _______ _____ _____    ______ ____
ROOT
ATOM      1  C   LIG    1       -0.791   7.412   0.105  0.00  0.00    +0.074 A 
ATOM      2  C   LIG    1        0.593   7.380   0.183  0.00  0.00    +0.097 A 
ATOM      3  N   LIG    1        0.979   6.099   0.069  0.00  0.00    -0.227 NA
ATOM      4  C   LIG    1       -0.077   5.333  -0.085  0.00  0.00    +0.139 A 
ATOM      5  N   LIG    1       -1.200   6.109  -0.064  0.00  0.00    -0.337 N 
ATOM      6  H   LIG    1       -2.143   5.790  -0.155  0.00  0.00    +0.167 HD
ENDROOT
BRANCH   1  10
ATOM      7  C   LIG    1       -3.275  10.849   0.342  0.00  0.00    -0.018 A 
ATOM      8  C   LIG    1       -3.581   9.715   1.095  0.00  0.00    +0.009 A 
ATOM      9  C   LIG    1       -2.777   8.600   1.019  0.00  0.00    +0.010 A 
ATOM     10  C   LIG    1       -1.653   8.605   0.188  0.00  0.00    +0.000 A 
ATOM     11  C   LIG    1       -1.344   9.745  -0.562  0.00  0.00    +0.010 A 
ATOM     12  C   LIG    1       -2.153  10.855  -0.488  0.00  0.00    +0.009 A 
BRANCH   7  16
ATOM     13  C   LIG    1       -5.761  14.290   0.579  0.00  0.00    +0.000 A 
ATOM     14  C   LIG    1       -4.649  14.298  -0.245  0.00  0.00    +0.001 A 
ATOM     15  C   LIG    1       -3.838  13.184  -0.326  0.00  0.00    +0.008 A 
ATOM     16  C   LIG    1       -4.141  12.049   0.425  0.00  0.00    -0.018 A 
ATOM     17  C   LIG    1       -5.266  12.045   1.249  0.00  0.00    +0.008 A 
ATOM     18  C   LIG    1       -6.066  13.166   1.326  0.00  0.00    +0.001 A 
ENDBRANCH   7  16
ENDBRANCH   1  10
BRANCH   2  19
ATOM     19  C   LIG    1        1.485   8.548   0.366  0.00  0.00    +0.002 A 
ATOM     20  C   LIG    1        2.669   8.643  -0.366  0.00  0.00    +0.011 A 
ATOM     21  C   LIG    1        3.495   9.732  -0.199  0.00  0.00    +0.009 A 
ATOM     22  C   LIG    1        3.155  10.734   0.709  0.00  0.00    -0.018 A 
ATOM     23  C   LIG    1        1.974  10.636   1.445  0.00  0.00    +0.009 A 
ATOM     24  C   LIG    1        1.144   9.551   1.275  0.00  0.00    +0.011 A 
BRANCH  22  25
ATOM     25  C   LIG    1        4.048  11.903   0.893  0.00  0.00    -0.018 A 
ATOM     26  C   LIG    1        3.707  12.909   1.796  0.00  0.00    +0.008 A 
ATOM     27  C   LIG    1        4.545  13.992   1.966  0.00  0.00    +0.001 A 
ATOM     28  C   LIG    1        5.715  14.087   1.235  0.00  0.00    +0.000 A 
ATOM     29  C   LIG    1        6.056  13.094   0.334  0.00  0.00    +0.001 A 
ATOM     30  C   LIG    1        5.229  12.003   0.160  0.00  0.00    +0.008 A 
ENDBRANCH  22  25
ENDBRANCH   2  19
BRANCH   4  31
ATOM     31  C   LIG    1       -0.053   3.864  -0.247  0.00  0.00    +0.021 A 
ATOM     32  C   LIG    1       -1.247   3.156  -0.396  0.00  0.00    +0.012 A 
ATOM     33  C   LIG    1       -1.221   1.786  -0.552  0.00  0.00    +0.004 A 
ATOM     34  C   LIG    1       -0.016   1.108  -0.551  0.00  0.00    +0.045 A 
ATOM     35  C   LIG    1        1.177   1.803  -0.405  0.00  0.00    +0.118 A 
ATOM     36  C   LIG    1        1.163   3.180  -0.252  0.00  0.00    +0.057 A 
BRANCH  35  37
ATOM     37  O   LIG    1        2.359   1.133  -0.410  0.00  0.00    -0.507 OA
ATOM     38  H   LIG    1        2.752   1.036  -1.288  0.00  0.00    +0.292 HD
ENDBRANCH  35  37
ENDBRANCH   4  31
TORSDOF 6
