REMARK  Name = ZINC06342342
REMARK                            x       y       z     vdW  Elec       q    Type
REMARK                         _______ _______ _______ _____ _____    ______ ____
ROOT
ATOM      1  C   LIG    1        2.620  -4.182   0.288  0.00  0.00    +0.251 C 
ATOM      2  N   LIG    1        3.825  -4.750   0.492  0.00  0.00    -0.307 N 
ATOM      3  H   LIG    1        4.609  -4.193   0.617  0.00  0.00    +0.149 HD
ATOM      4  O   LIG    1        1.637  -4.881   0.132  0.00  0.00    -0.270 OA
ENDROOT
BRANCH   1  11
ATOM      5  C   LIG    1       -0.016   1.361   0.009  0.00  0.00    +0.001 A 
ATOM      6  C   LIG    1        1.169   2.083   0.002  0.00  0.00    +0.004 A 
ATOM      7  C   LIG    1        2.386   1.435  -0.026  0.00  0.00    +0.047 A 
ATOM      8  C   LIG    1        2.430   0.048  -0.040  0.00  0.00    +0.139 A 
ATOM      9  C   LIG    1        1.229  -0.684  -0.003  0.00  0.00    +0.018 A 
ATOM     10  C   LIG    1        1.266  -2.102   0.048  0.00  0.00    +0.031 A 
ATOM     11  C   LIG    1        2.494  -2.716   0.256  0.00  0.00    +0.122 A 
ATOM     12  C   LIG    1        3.666  -1.841   0.442  0.00  0.00    +0.350 A 
ATOM     13  O   LIG    1        4.642  -2.222   1.060  0.00  0.00    -0.244 OA
ATOM     14  O   LIG    1        3.619  -0.600  -0.096  0.00  0.00    -0.422 OA
ATOM     15  C   LIG    1        0.002  -0.004   0.002  0.00  0.00    +0.011 A 
ENDBRANCH   1  11
BRANCH   2  16
ATOM     16  C   LIG    1        3.951  -6.210   0.525  0.00  0.00    +0.139 C 
BRANCH  16  17
ATOM     17  C   LIG    1        5.391  -6.585   0.766  0.00  0.00    -0.030 A 
ATOM     18  C   LIG    1        6.247  -6.761  -0.305  0.00  0.00    +0.007 A 
ATOM     19  C   LIG    1        7.568  -7.104  -0.084  0.00  0.00    +0.029 A 
ATOM     20  C   LIG    1        8.032  -7.272   1.208  0.00  0.00    +0.105 A 
ATOM     21  C   LIG    1        7.175  -7.095   2.278  0.00  0.00    +0.029 A 
ATOM     22  C   LIG    1        5.856  -6.747   2.057  0.00  0.00    +0.007 A 
BRANCH  20  23
ATOM     23  S   LIG    1        9.715  -7.711   1.489  0.00  0.00    +0.056 S 
ATOM     24  O   LIG    1       10.171  -8.351   0.305  0.00  0.00    -0.153 OA
ATOM     25  O   LIG    1        9.763  -8.340   2.762  0.00  0.00    -0.153 OA
BRANCH  23  26
ATOM     26  N   LIG    1       10.573  -6.301   1.626  0.00  0.00    -0.204 NA
ATOM     27  H   LIG    1       11.529  -6.329   1.785  0.00  0.00    +0.144 HD
ATOM     28  H   LIG    1       10.119  -5.448   1.546  0.00  0.00    +0.144 HD
ENDBRANCH  23  26
ENDBRANCH  20  23
ENDBRANCH  16  17
ENDBRANCH   2  16
TORSDOF 5
