REMARK  Name = ZINC06126201
REMARK                            x       y       z     vdW  Elec       q    Type
REMARK                         _______ _______ _______ _____ _____    ______ ____
ROOT
ATOM      1  N   LIG    1        3.607   1.346  -0.026  0.00  0.00    -0.284 N 
ATOM      2  H   LIG    1        4.254   0.626   0.047  0.00  0.00    +0.155 HD
ATOM      3  C   LIG    1        4.028   2.623  -0.124  0.00  0.00    +0.222 C 
ATOM      4  O   LIG    1        3.222   3.529  -0.112  0.00  0.00    -0.275 OA
ENDROOT
BRANCH   1   6
ATOM      5  C   LIG    1        1.738  -0.105   0.552  0.00  0.00    +0.117 A 
ATOM      6  C   LIG    1        2.242   1.059  -0.027  0.00  0.00    +0.055 A 
ATOM      7  C   LIG    1        1.324   1.913  -0.602  0.00  0.00    +0.032 A 
ATOM      8  C   LIG    1        0.008   1.586  -0.577  0.00  0.00    +0.048 A 
ATOM      9  S   LIG    1       -0.013   0.065   0.254  0.00  0.00    -0.088 S 
BRANCH   5  10
ATOM     10  C   LIG    1        2.434  -1.149   1.205  0.00  0.00    +0.347 C 
ATOM     11  O   LIG    1        3.645  -1.097   1.317  0.00  0.00    -0.244 OA
BRANCH  10  13
ATOM     12  C   LIG    1        2.522  -3.222   2.350  0.00  0.00    +0.280 C 
ATOM     13  O   LIG    1        1.755  -2.204   1.703  0.00  0.00    -0.464 OA
ENDBRANCH  10  13
ENDBRANCH   5  10
ENDBRANCH   1   6
BRANCH   3  14
ATOM     14  C   LIG    1        5.499   2.923  -0.251  0.00  0.00    +0.131 C 
BRANCH  14  15
ATOM     15  C   LIG    1        5.701   4.414  -0.345  0.00  0.00    -0.039 A 
ATOM     16  C   LIG    1        5.709   5.034  -1.580  0.00  0.00    +0.004 A 
ATOM     17  C   LIG    1        5.889   6.402  -1.666  0.00  0.00    +0.000 A 
ATOM     18  C   LIG    1        6.071   7.148  -0.516  0.00  0.00    +0.000 A 
ATOM     19  C   LIG    1        6.068   6.527   0.719  0.00  0.00    +0.000 A 
ATOM     20  C   LIG    1        5.883   5.160   0.804  0.00  0.00    +0.004 A 
ENDBRANCH  14  15
ENDBRANCH   3  14
TORSDOF 5
