REMARK  Name = ZINC06406655
REMARK                            x       y       z     vdW  Elec       q    Type
REMARK                         _______ _______ _______ _____ _____    ______ ____
ROOT
ATOM      1  C   LIG    1       -0.787   2.893   1.346  0.00  0.00    +0.143 A 
ATOM      2  C   LIG    1       -0.253   3.749   0.396  0.00  0.00    +0.048 A 
ATOM      3  C   LIG    1       -0.363   5.115   0.555  0.00  0.00    +0.012 A 
ATOM      4  C   LIG    1       -1.002   5.639   1.677  0.00  0.00    -0.016 A 
ATOM      5  C   LIG    1       -1.535   4.780   2.637  0.00  0.00    +0.037 A 
ATOM      6  C   LIG    1       -1.428   3.410   2.471  0.00  0.00    +0.095 A 
ENDROOT
BRANCH   6   7
ATOM      7  N   LIG    1       -1.962   2.544   3.433  0.00  0.00    -0.178 N 
ATOM      8  C   LIG    1       -3.343   2.053   3.542  0.00  0.00    +0.230 C 
ATOM      9  C   LIG    1       -3.507   1.142   4.716  0.00  0.00    +0.252 C 
ATOM     10  N   LIG    1       -2.395   0.943   5.438  0.00  0.00    -0.171 N 
ATOM     11  H   LIG    1       -2.313   0.386   6.228  0.00  0.00    +0.178 HD
ATOM     12  O   LIG    1       -4.567   0.622   4.994  0.00  0.00    -0.272 OA
ATOM     13  S   LIG    1       -1.178   1.824   4.719  0.00  0.00    +0.129 S 
ATOM     14  O   LIG    1       -0.815   2.857   5.625  0.00  0.00    -0.135 OA
ATOM     15  O   LIG    1       -0.244   0.898   4.179  0.00  0.00    -0.135 OA
ENDBRANCH   6   7
BRANCH   4  16
ATOM     16  C   LIG    1       -1.115   7.108   1.850  0.00  0.00    -0.018 A 
ATOM     17  C   LIG    1       -1.759   7.633   2.969  0.00  0.00    +0.008 A 
ATOM     18  C   LIG    1       -1.857   9.001   3.127  0.00  0.00    +0.001 A 
ATOM     19  C   LIG    1       -1.327   9.850   2.172  0.00  0.00    +0.000 A 
ATOM     20  C   LIG    1       -0.691   9.334   1.057  0.00  0.00    +0.001 A 
ATOM     21  C   LIG    1       -0.582   7.968   0.892  0.00  0.00    +0.008 A 
ENDBRANCH   4  16
BRANCH   1  23
ATOM     22  C   LIG    1       -0.013   1.086   0.008  0.00  0.00    +0.277 C 
ATOM     23  O   LIG    1       -0.682   1.547   1.184  0.00  0.00    -0.493 OA
ENDBRANCH   1  23
TORSDOF 3
