REMARK  Name = ZINC06118700
REMARK                            x       y       z     vdW  Elec       q    Type
REMARK                         _______ _______ _______ _____ _____    ______ ____
ROOT
ATOM      1  C   LIG    1       -0.750   7.745  -0.893  0.00  0.00    +0.002 A 
ATOM      2  C   LIG    1       -0.006   7.255   0.178  0.00  0.00    +0.002 A 
ATOM      3  C   LIG    1        0.148   5.915   0.367  0.00  0.00    +0.030 A 
ATOM      4  C   LIG    1       -0.450   5.011  -0.527  0.00  0.00    +0.091 A 
ATOM      5  C   LIG    1       -1.206   5.510  -1.615  0.00  0.00    +0.091 A 
ATOM      6  N   LIG    1       -1.780   4.655  -2.474  0.00  0.00    -0.226 NA
ATOM      7  C   LIG    1       -1.638   3.358  -2.300  0.00  0.00    +0.174 A 
ATOM      8  C   LIG    1       -0.882   2.859  -1.212  0.00  0.00    +0.174 A 
ATOM      9  N   LIG    1       -0.316   3.687  -0.359  0.00  0.00    -0.226 NA
ATOM     10  C   LIG    1       -1.343   6.897  -1.779  0.00  0.00    +0.030 A 
ENDROOT
BRANCH   7  11
ATOM     11  N   LIG    1       -2.233   2.474  -3.188  0.00  0.00    -0.265 N 
ATOM     12  H   LIG    1       -2.130   1.518  -3.063  0.00  0.00    +0.168 HD
BRANCH  11  13
ATOM     13  N   LIG    1       -2.964   2.950  -4.239  0.00  0.00    -0.255 NA
ATOM     14  H   LIG    1       -3.332   2.194  -4.796  0.00  0.00    +0.140 HD
ATOM     15  H   LIG    1       -2.415   3.581  -4.805  0.00  0.00    +0.140 HD
ENDBRANCH  11  13
ENDBRANCH   7  11
BRANCH   8  16
ATOM     16  N   LIG    1       -0.741   1.490  -1.041  0.00  0.00    -0.265 N 
ATOM     17  H   LIG    1       -1.159   0.877  -1.665  0.00  0.00    +0.168 HD
BRANCH  16  18
ATOM     18  N   LIG    1       -0.012   1.005   0.008  0.00  0.00    -0.255 NA
ATOM     19  H   LIG    1        0.925   1.379   0.001  0.00  0.00    +0.140 HD
ATOM     20  H   LIG    1        0.002  -0.004   0.002  0.00  0.00    +0.140 HD
ENDBRANCH  16  18
ENDBRANCH   8  16
TORSDOF 4
