REMARK  Name = ZINC06251082
REMARK                            x       y       z     vdW  Elec       q    Type
REMARK                         _______ _______ _______ _____ _____    ______ ____
ROOT
ATOM      1  C   LIG    1       -1.143  -1.142  -1.519  0.00  0.00    +0.082 A 
ATOM      2  C   LIG    1       -2.317  -0.474  -1.734  0.00  0.00    +0.078 A 
ATOM      3  S   LIG    1       -3.501  -1.688  -1.166  0.00  0.00    -0.038 S 
ATOM      4  C   LIG    1       -2.323  -2.950  -0.703  0.00  0.00    +0.272 A 
ATOM      5  N   LIG    1       -1.173  -2.365  -1.014  0.00  0.00    -0.206 NA
ENDROOT
BRANCH   1  11
ATOM      6  C   LIG    1        0.186   0.821  -2.288  0.00  0.00    +0.014 A 
ATOM      7  C   LIG    1        1.393   1.415  -2.600  0.00  0.00    +0.050 A 
ATOM      8  C   LIG    1        2.573   0.697  -2.483  0.00  0.00    +0.158 A 
ATOM      9  C   LIG    1        2.545  -0.626  -2.051  0.00  0.00    +0.159 A 
ATOM     10  C   LIG    1        1.339  -1.226  -1.737  0.00  0.00    +0.059 A 
ATOM     11  C   LIG    1        0.153  -0.503  -1.855  0.00  0.00    +0.005 A 
BRANCH   8  12
ATOM     12  O   LIG    1        3.759   1.286  -2.792  0.00  0.00    -0.503 OA
ATOM     13  H   LIG    1        4.185   1.728  -2.045  0.00  0.00    +0.292 HD
ENDBRANCH   8  12
BRANCH   9  14
ATOM     14  O   LIG    1        3.704  -1.329  -1.938  0.00  0.00    -0.503 OA
ATOM     15  H   LIG    1        4.122  -1.261  -1.068  0.00  0.00    +0.292 HD
ENDBRANCH   9  14
ENDBRANCH   1  11
BRANCH   4  16
ATOM     16  N   LIG    1       -2.546  -4.184  -0.178  0.00  0.00    -0.045 NA
ATOM     17  C   LIG    1       -1.531  -4.932   0.200  0.00  0.00    +0.384 C 
BRANCH  17  18
ATOM     18  N   LIG    1       -1.743  -6.228   0.591  0.00  0.00    -0.289 N 
ATOM     19  H   LIG    1       -0.995  -6.779   0.869  0.00  0.00    +0.255 HD
ATOM     20  H   LIG    1       -2.641  -6.595   0.588  0.00  0.00    +0.255 HD
ENDBRANCH  17  18
BRANCH  17  21
ATOM     21  N   LIG    1       -0.262  -4.414   0.204  0.00  0.00    -0.289 N 
ATOM     22  H   LIG    1        0.503  -5.005   0.125  0.00  0.00    +0.255 HD
ATOM     23  H   LIG    1       -0.129  -3.456   0.285  0.00  0.00    +0.255 HD
ENDBRANCH  17  21
ENDBRANCH   4  16
TORSDOF 6
