REMARK  Name = ZINC06706909
REMARK                            x       y       z     vdW  Elec       q    Type
REMARK                         _______ _______ _______ _____ _____    ______ ____
ROOT
ATOM      1  C   LIG    1        0.626  -0.619   1.042  0.00  0.00    +0.136 A 
ATOM      2  C   LIG    1        1.202   0.139   2.051  0.00  0.00    +0.079 A 
ATOM      3  C   LIG    1        1.837  -0.485   3.107  0.00  0.00    +0.153 A 
ATOM      4  C   LIG    1        1.898  -1.870   3.160  0.00  0.00    +0.148 A 
ATOM      5  C   LIG    1        1.322  -2.628   2.151  0.00  0.00    +0.066 A 
ATOM      6  C   LIG    1        0.682  -2.004   1.097  0.00  0.00    +0.063 A 
ATOM      7 BR   LIG    1       -0.110  -3.038  -0.274  0.00  0.00    -0.046 Br
ENDROOT
BRANCH   3   8
ATOM      8  S   LIG    1        2.569   0.478   4.388  0.00  0.00    +0.076 S 
ATOM      9  O   LIG    1        2.319   1.839   4.067  0.00  0.00    -0.150 OA
ATOM     10  O   LIG    1        3.882  -0.031   4.579  0.00  0.00    -0.150 OA
BRANCH   8  11
ATOM     11  N   LIG    1        1.731   0.159   5.781  0.00  0.00    -0.215 N 
ATOM     12  H   LIG    1        0.977  -0.475   5.767  0.00  0.00    +0.174 HD
BRANCH  11  13
ATOM     13  C   LIG    1        2.093   0.788   6.974  0.00  0.00    +0.066 A 
ATOM     14  C   LIG    1        1.398   0.523   8.152  0.00  0.00    +0.027 A 
ATOM     15  C   LIG    1        1.795   1.172   9.310  0.00  0.00    +0.022 A 
ATOM     16  C   LIG    1        2.858   2.055   9.259  0.00  0.00    +0.111 A 
ATOM     17  N   LIG    1        3.495   2.284   8.127  0.00  0.00    -0.261 NA
ATOM     18  C   LIG    1        3.154   1.684   7.004  0.00  0.00    +0.135 A 
ENDBRANCH  11  13
ENDBRANCH   8  11
ENDBRANCH   3   8
BRANCH   1  20
ATOM     19  C   LIG    1       -0.017   1.425   0.010  0.00  0.00    +0.277 C 
ATOM     20  O   LIG    1        0.002  -0.004   0.002  0.00  0.00    -0.494 OA
ENDBRANCH   1  20
BRANCH   4  21
ATOM     21  O   LIG    1        2.523  -2.484   4.199  0.00  0.00    -0.493 OA
ATOM     22  C   LIG    1        2.548  -3.913   4.189  0.00  0.00    +0.277 C 
ENDBRANCH   4  21
TORSDOF 5
