REMARK  Name = ZINC05876711
REMARK                            x       y       z     vdW  Elec       q    Type
REMARK                         _______ _______ _______ _____ _____    ______ ____
ROOT
ATOM      1  C   LIG    1       -3.614   3.137  -0.050  0.00  0.00    +0.228 C 
ATOM      2  N   LIG    1       -2.457   3.822   0.044  0.00  0.00    -0.285 N 
ATOM      3  H   LIG    1       -2.471   4.788   0.126  0.00  0.00    +0.155 HD
ATOM      4  O   LIG    1       -3.602   1.924  -0.056  0.00  0.00    -0.275 OA
ENDROOT
BRANCH   2   5
ATOM      5  C   LIG    1       -1.236   3.139   0.024  0.00  0.00    +0.034 A 
ATOM      6  C   LIG    1       -0.162   3.614   0.766  0.00  0.00    +0.025 A 
ATOM      7  C   LIG    1        1.044   2.943   0.743  0.00  0.00    +0.030 A 
ATOM      8  C   LIG    1        1.181   1.787  -0.015  0.00  0.00    +0.069 A 
ATOM      9  C   LIG    1        0.106   1.310  -0.753  0.00  0.00    +0.030 A 
ATOM     10  C   LIG    1       -1.099   1.983  -0.734  0.00  0.00    +0.025 A 
BRANCH   8  11
ATOM     11  N   LIG    1        2.405   1.103  -0.036  0.00  0.00    -0.200 N 
ATOM     12  C   LIG    1        2.703  -0.026  -0.715  0.00  0.00    +0.250 A 
ATOM     13  N   LIG    1        3.949  -0.320  -0.453  0.00  0.00    -0.116 NA
ATOM     14  N   LIG    1        4.461   0.546   0.346  0.00  0.00    -0.023 NA
ATOM     15  N   LIG    1        3.588   1.448   0.642  0.00  0.00    -0.039 NA
ENDBRANCH   8  11
ENDBRANCH   2   5
BRANCH   1  16
ATOM     16  C   LIG    1       -4.923   3.877  -0.148  0.00  0.00    +0.175 C 
BRANCH  16  17
ATOM     17  S   LIG    1       -6.282   2.688  -0.261  0.00  0.00    -0.058 S 
BRANCH  17  24
ATOM     18  C   LIG    1      -10.671   7.136  -0.577  0.00  0.00    +0.002 A 
ATOM     19  C   LIG    1      -11.542   6.061  -0.651  0.00  0.00    +0.004 A 
ATOM     20  C   LIG    1      -11.061   4.767  -0.622  0.00  0.00    +0.048 A 
ATOM     21  C   LIG    1       -9.698   4.539  -0.517  0.00  0.00    +0.156 A 
ATOM     22  C   LIG    1       -8.813   5.625  -0.442  0.00  0.00    +0.110 A 
ATOM     23  N   LIG    1       -7.561   5.101  -0.342  0.00  0.00    -0.203 NA
ATOM     24  C   LIG    1       -7.650   3.795  -0.362  0.00  0.00    +0.258 A 
ATOM     25  O   LIG    1       -8.938   3.421  -0.465  0.00  0.00    -0.431 OA
ATOM     26  C   LIG    1       -9.313   6.928  -0.473  0.00  0.00    +0.031 A 
ENDBRANCH  17  24
ENDBRANCH  16  17
ENDBRANCH   1  16
TORSDOF 5
