REMARK  Name = ZINC06245719
REMARK                            x       y       z     vdW  Elec       q    Type
REMARK                         _______ _______ _______ _____ _____    ______ ____
ROOT
ATOM      1  C   LIG    1       -0.847   1.694   1.717  0.00  0.00    +0.061 C 
ATOM      2  C   LIG    1       -0.652   0.187   1.537  0.00  0.00    +0.134 C 
ATOM      3  C   LIG    1        0.447  -0.068   0.503  0.00  0.00    +0.061 C 
ATOM      4  C   LIG    1       -1.943  -0.437   1.071  0.00  0.00    +0.017 A 
ATOM      5  C   LIG    1       -2.825   0.267   0.286  0.00  0.00    +0.019 A 
ATOM      6  C   LIG    1       -4.014  -0.338  -0.133  0.00  0.00    -0.001 A 
ATOM      7  C   LIG    1       -4.299  -1.652   0.246  0.00  0.00    +0.012 A 
ATOM      8  C   LIG    1       -3.410  -2.350   1.034  0.00  0.00    +0.024 A 
ATOM      9  C   LIG    1       -2.231  -1.747   1.449  0.00  0.00    +0.041 A 
ATOM     10  N   LIG    1       -1.314  -2.433   2.251  0.00  0.00    -0.279 N 
ATOM     11  H   LIG    1       -1.372  -3.397   2.347  0.00  0.00    +0.156 HD
ATOM     12  C   LIG    1       -0.348  -1.741   2.890  0.00  0.00    +0.233 C 
ATOM     13  S   LIG    1        0.803  -2.577   3.843  0.00  0.00    +0.006 S 
ATOM     14  O   LIG    1       -0.279  -0.401   2.787  0.00  0.00    -0.463 OA
ENDROOT
BRANCH   6  15
ATOM     15  C   LIG    1       -4.967   0.412  -0.976  0.00  0.00    +0.050 A 
ATOM     16  C   LIG    1       -5.044   1.784  -1.083  0.00  0.00    +0.029 A 
ATOM     17  C   LIG    1       -6.072   2.082  -1.977  0.00  0.00    +0.039 A 
ATOM     18  C   LIG    1       -6.609   0.884  -2.405  0.00  0.00    +0.120 A 
ATOM     19  N   LIG    1       -5.920  -0.136  -1.788  0.00  0.00    -0.335 N 
ATOM     20  C   LIG    1       -6.169  -1.568  -1.969  0.00  0.00    +0.150 C 
BRANCH  18  21
ATOM     21  C   LIG    1       -7.690   0.730  -3.331  0.00  0.00    +0.117 C 
ATOM     22  N   LIG    1       -8.548   0.608  -4.066  0.00  0.00    -0.189 NA
ENDBRANCH  18  21
ENDBRANCH   6  15
TORSDOF 2
