REMARK  Name = ZINC06777826
REMARK                            x       y       z     vdW  Elec       q    Type
REMARK                         _______ _______ _______ _____ _____    ______ ____
ROOT
ATOM      1  C   LIG    1       -2.096   2.162   1.022  0.00  0.00    +0.161 C 
ATOM      2  C   LIG    1       -2.372   3.562   0.555  0.00  0.00    +0.016 C 
ATOM      3  C   LIG    1       -3.350   4.310   1.022  0.00  0.00    +0.033 C 
ATOM      4  C   LIG    1       -4.308   3.862   2.087  0.00  0.00    +0.028 C 
ATOM      5  C   LIG    1       -4.263   2.339   2.229  0.00  0.00    -0.047 C 
ATOM      6  C   LIG    1       -2.798   1.908   2.358  0.00  0.00    +0.091 C 
ENDROOT
BRANCH   6   7
ATOM      7  N   LIG    1       -2.145   2.686   3.413  0.00  0.00    -0.311 N 
ATOM      8  H   LIG    1       -2.494   3.556   3.661  0.00  0.00    +0.149 HD
ATOM      9  C   LIG    1       -1.058   2.193   4.040  0.00  0.00    +0.210 C 
ATOM     10  C   LIG    1       -0.386   2.994   5.125  0.00  0.00    +0.109 C 
ATOM     11  O   LIG    1       -0.621   1.105   3.730  0.00  0.00    -0.276 OA
ENDBRANCH   6   7
BRANCH   5  12
ATOM     12  N   LIG    1       -4.996   1.946   3.446  0.00  0.00    +0.381 N 
ATOM     13  H   LIG    1       -4.578   2.414   4.258  0.00  0.00    -0.090 HD
ATOM     14  H   LIG    1       -4.939   0.938   3.578  0.00  0.00    -0.090 HD
ATOM     15  H   LIG    1       -5.973   2.223   3.369  0.00  0.00    -0.090 HD
ENDBRANCH   5  12
BRANCH   3  16
ATOM     16  C   LIG    1       -3.513   5.661   0.468  0.00  0.00    +0.332 C 
ATOM     17  O   LIG    1       -2.756   6.059  -0.396  0.00  0.00    -0.245 OA
BRANCH  16  18
ATOM     18  O   LIG    1       -4.502   6.459   0.918  0.00  0.00    -0.477 OA
ATOM     19  H   LIG    1       -5.085   6.152   1.584  0.00  0.00    +0.295 HD
ENDBRANCH  16  18
ENDBRANCH   3  16
BRANCH   1  20
ATOM     20  O   LIG    1       -0.688   1.987   1.186  0.00  0.00    -0.368 OA
BRANCH  20  21
ATOM     21  C   LIG    1       -0.019   1.526   0.010  0.00  0.00    +0.119 C 
BRANCH  21  23
ATOM     22  C   LIG    1       -1.429  -0.533  -0.113  0.00  0.00    +0.006 C 
ATOM     23  C   LIG    1        0.002  -0.004   0.002  0.00  0.00    +0.028 C 
ENDBRANCH  21  23
BRANCH  21  24
ATOM     24  C   LIG    1        1.417   2.055  -0.000  0.00  0.00    +0.028 C 
ATOM     25  C   LIG    1        1.397   3.581  -0.118  0.00  0.00    +0.006 C 
ENDBRANCH  21  24
ENDBRANCH  20  21
ENDBRANCH   1  20
TORSDOF 8
