REMARK  Name = ZINC06718666
REMARK                            x       y       z     vdW  Elec       q    Type
REMARK                         _______ _______ _______ _____ _____    ______ ____
ROOT
ATOM      1  C   LIG    1       -1.036   6.020  -0.747  0.00  0.00    +0.098 A 
ATOM      2  C   LIG    1       -0.299   5.361   0.266  0.00  0.00    +0.099 A 
ATOM      3  N   LIG    1        0.571   6.031   1.005  0.00  0.00    -0.224 NA
ATOM      4  C   LIG    1        0.759   7.334   0.784  0.00  0.00    +0.186 A 
ATOM      5  C   LIG    1        0.018   7.989  -0.232  0.00  0.00    +0.148 A 
ATOM      6  C   LIG    1        0.253   9.420  -0.434  0.00  0.00    +0.149 A 
ATOM      7  N   LIG    1        1.145  10.015   0.346  0.00  0.00    -0.198 NA
ATOM      8  C   LIG    1        1.805   9.338   1.281  0.00  0.00    +0.216 A 
ATOM      9  N   LIG    1        1.632   8.050   1.504  0.00  0.00    -0.193 NA
ATOM     10  N   LIG    1       -0.858   7.312  -0.967  0.00  0.00    -0.238 NA
ENDROOT
BRANCH   1  13
ATOM     11  C   LIG    1       -2.574   3.307  -2.846  0.00  0.00    +0.004 A 
ATOM     12  C   LIG    1       -1.663   4.015  -2.089  0.00  0.00    +0.010 A 
ATOM     13  C   LIG    1       -2.010   5.259  -1.563  0.00  0.00    +0.006 A 
ATOM     14  C   LIG    1       -3.276   5.787  -1.814  0.00  0.00    +0.055 A 
ATOM     15  C   LIG    1       -4.182   5.071  -2.578  0.00  0.00    +0.117 A 
ATOM     16  C   LIG    1       -3.829   3.831  -3.093  0.00  0.00    +0.045 A 
BRANCH  15  17
ATOM     17  O   LIG    1       -5.417   5.582  -2.824  0.00  0.00    -0.507 OA
ATOM     18  H   LIG    1       -5.467   6.121  -3.626  0.00  0.00    +0.292 HD
ENDBRANCH  15  17
ENDBRANCH   1  13
BRANCH   2  19
ATOM     19  C   LIG    1       -0.507   3.914   0.504  0.00  0.00    +0.006 A 
ATOM     20  C   LIG    1       -1.799   3.393   0.559  0.00  0.00    +0.010 A 
ATOM     21  C   LIG    1       -1.990   2.043   0.775  0.00  0.00    +0.004 A 
ATOM     22  C   LIG    1       -0.902   1.206   0.949  0.00  0.00    +0.045 A 
ATOM     23  C   LIG    1        0.387   1.717   0.896  0.00  0.00    +0.117 A 
ATOM     24  C   LIG    1        0.589   3.069   0.674  0.00  0.00    +0.055 A 
BRANCH  23  25
ATOM     25  O   LIG    1        1.453   0.890   1.062  0.00  0.00    -0.507 OA
ATOM     26  H   LIG    1        1.783   0.504   0.239  0.00  0.00    +0.292 HD
ENDBRANCH  23  25
ENDBRANCH   2  19
BRANCH   6  27
ATOM     27  N   LIG    1       -0.430  10.124  -1.402  0.00  0.00    -0.341 N 
ATOM     28  H   LIG    1       -0.261  11.072  -1.522  0.00  0.00    +0.144 HD
ATOM     29  H   LIG    1       -1.079   9.673  -1.964  0.00  0.00    +0.144 HD
ENDBRANCH   6  27
BRANCH   8  30
ATOM     30  N   LIG    1        2.721  10.020   2.058  0.00  0.00    -0.327 N 
ATOM     31  H   LIG    1        2.868  10.968   1.915  0.00  0.00    +0.145 HD
ATOM     32  H   LIG    1        3.217   9.551   2.747  0.00  0.00    +0.145 HD
ENDBRANCH   8  30
TORSDOF 6
