REMARK  Name = ZINC08451845
REMARK                            x       y       z     vdW  Elec       q    Type
REMARK                         _______ _______ _______ _____ _____    ______ ____
ROOT
ATOM      1  N   LIG    1       -0.225  -1.783   5.396  0.00  0.00    -0.219 N 
ATOM      2  C   LIG    1       -1.408  -2.121   5.880  0.00  0.00    +0.261 C 
ATOM      3  C   LIG    1       -1.446  -2.838   7.114  0.00  0.00    +0.081 C 
ATOM      4  S   LIG    1        0.297  -2.970   7.487  0.00  0.00    -0.026 S 
ATOM      5  C   LIG    1       -2.521  -3.298   7.817  0.00  0.00    +0.046 C 
ATOM      6  O   LIG    1       -2.433  -1.830   5.291  0.00  0.00    -0.269 OA
ATOM      7  C   LIG    1        0.913  -2.111   6.046  0.00  0.00    +0.286 C 
ATOM      8  O   LIG    1        2.065  -1.879   5.732  0.00  0.00    -0.262 OA
ENDROOT
BRANCH   5   9
ATOM      9  C   LIG    1       -2.333  -3.892   9.086  0.00  0.00    +0.048 A 
ATOM     10  C   LIG    1       -1.119  -4.177   9.686  0.00  0.00    +0.027 A 
ATOM     11  C   LIG    1       -1.398  -4.757  10.927  0.00  0.00    +0.020 A 
ATOM     12  C   LIG    1       -2.745  -4.818  11.067  0.00  0.00    +0.092 A 
ATOM     13  N   LIG    1       -3.327  -4.289   9.956  0.00  0.00    -0.316 N 
BRANCH  13  14
ATOM     14  C   LIG    1       -4.705  -4.172   9.732  0.00  0.00    +0.047 A 
ATOM     15  C   LIG    1       -5.258  -2.930   9.441  0.00  0.00    +0.026 A 
ATOM     16  C   LIG    1       -6.617  -2.808   9.219  0.00  0.00    +0.003 A 
ATOM     17  C   LIG    1       -7.435  -3.918   9.285  0.00  0.00    +0.015 A 
ATOM     18  C   LIG    1       -6.889  -5.171   9.576  0.00  0.00    +0.061 A 
ATOM     19  C   LIG    1       -5.515  -5.294   9.795  0.00  0.00    +0.041 A 
BRANCH  18  20
ATOM     20  C   LIG    1       -7.760  -6.360   9.647  0.00  0.00    +0.337 C 
ATOM     21  O   LIG    1       -8.962  -6.250   9.451  0.00  0.00    -0.245 OA
BRANCH  20  22
ATOM     22  O   LIG    1       -7.279  -7.455   9.902  0.00  0.00    -0.477 OA
ATOM     23  H   LIG    1       -6.358  -7.539  10.053  0.00  0.00    +0.295 HD
ENDBRANCH  20  22
ENDBRANCH  18  20
ENDBRANCH  13  14
ENDBRANCH   5   9
BRANCH   1  24
ATOM     24  C   LIG    1       -0.147  -1.047   4.131  0.00  0.00    +0.213 C 
BRANCH  24  27
ATOM     25  N   LIG    1        0.013  -1.570   1.719  0.00  0.00    -0.284 N 
ATOM     26  H   LIG    1        0.086  -0.618   1.548  0.00  0.00    +0.155 HD
ATOM     27  C   LIG    1       -0.067  -2.023   2.986  0.00  0.00    +0.235 C 
ATOM     28  O   LIG    1       -0.074  -3.216   3.204  0.00  0.00    -0.274 OA
BRANCH  25  35
ATOM     29  C   LIG    1       -1.249  -0.760  -0.699  0.00  0.00    +0.045 C 
ATOM     30  C   LIG    1       -0.615  -2.118  -0.548  0.00  0.00    -0.029 A 
ATOM     31  C   LIG    1       -0.630  -3.010  -1.603  0.00  0.00    +0.005 A 
ATOM     32  C   LIG    1       -0.049  -4.257  -1.464  0.00  0.00    +0.000 A 
ATOM     33  C   LIG    1        0.550  -4.615  -0.271  0.00  0.00    +0.002 A 
ATOM     34  C   LIG    1        0.570  -3.728   0.788  0.00  0.00    +0.023 A 
ATOM     35  C   LIG    1       -0.009  -2.473   0.650  0.00  0.00    +0.036 A 
ENDBRANCH  25  35
ENDBRANCH  24  27
ENDBRANCH   1  24
TORSDOF 7
