REMARK  Name = ZINC06266252
REMARK                            x       y       z     vdW  Elec       q    Type
REMARK                         _______ _______ _______ _____ _____    ______ ____
ROOT
ATOM      1  C   LIG    1       -2.926   1.602   2.459  0.00  0.00    +0.008 C 
ATOM      2  C   LIG    1       -2.214   1.258   1.149  0.00  0.00    +0.001 C 
ATOM      3  C   LIG    1       -0.719   1.574   1.274  0.00  0.00    +0.052 C 
ATOM      4  C   LIG    1       -0.013   1.086   0.008  0.00  0.00    +0.170 C 
ATOM      5  N   LIG    1       -0.658   1.563  -1.272  0.00  0.00    -0.277 N 
ATOM      6  H   LIG    1       -0.150   1.548  -2.163  0.00  0.00    +0.304 HD
ATOM      7  C   LIG    1       -1.906   2.002  -1.199  0.00  0.00    +0.237 C 
ATOM      8  C   LIG    1        1.425   1.610  -0.003  0.00  0.00    +0.057 C 
ATOM      9  C   LIG    1       -2.788   2.107   0.011  0.00  0.00    +0.127 C 
ENDROOT
BRANCH   7  10
ATOM     10  N   LIG    1       -2.421   2.405  -2.403  0.00  0.00    -0.254 N 
ATOM     11  H   LIG    1       -3.328   2.743  -2.454  0.00  0.00    +0.288 HD
ATOM     12  H   LIG    1       -1.878   2.350  -3.205  0.00  0.00    +0.288 HD
ENDBRANCH   7  10
TORSDOF 1
