REMARK  Name = ZINC08418366
REMARK                            x       y       z     vdW  Elec       q    Type
REMARK                         _______ _______ _______ _____ _____    ______ ____
ROOT
ATOM      1  N   LIG    1        1.163   3.483   0.009  0.00  0.00    -0.314 N 
ATOM      2  H   LIG    1        0.320   3.959  -0.052  0.00  0.00    +0.152 HD
ENDROOT
BRANCH   1   7
ATOM      3  C   LIG    1        3.627   6.199  -0.295  0.00  0.00    +0.003 A 
ATOM      4  C   LIG    1        4.735   5.624   0.293  0.00  0.00    +0.015 A 
ATOM      5  C   LIG    1        4.663   4.323   0.796  0.00  0.00    +0.061 A 
ATOM      6  C   LIG    1        3.468   3.610   0.704  0.00  0.00    +0.038 A 
ATOM      7  C   LIG    1        2.361   4.194   0.107  0.00  0.00    +0.032 A 
ATOM      8  C   LIG    1        2.443   5.491  -0.389  0.00  0.00    +0.023 A 
BRANCH   5   9
ATOM      9  C   LIG    1        5.848   3.706   1.427  0.00  0.00    +0.337 C 
ATOM     10  O   LIG    1        5.784   2.574   1.863  0.00  0.00    -0.245 OA
BRANCH   9  11
ATOM     11  O   LIG    1        7.000   4.399   1.518  0.00  0.00    -0.477 OA
ATOM     12  H   LIG    1        7.050   5.272   1.182  0.00  0.00    +0.295 HD
ENDBRANCH   9  11
ENDBRANCH   5   9
ENDBRANCH   1   7
BRANCH   1  13
ATOM     13  C   LIG    1        1.178   2.086  -0.001  0.00  0.00    +0.031 A 
ATOM     14  C   LIG    1        0.123   1.374   0.556  0.00  0.00    +0.025 A 
ATOM     15  C   LIG    1        0.141  -0.007   0.544  0.00  0.00    +0.034 A 
ATOM     16  C   LIG    1        1.208  -0.681  -0.021  0.00  0.00    +0.122 A 
ATOM     17  C   LIG    1        2.260   0.025  -0.577  0.00  0.00    +0.034 A 
ATOM     18  C   LIG    1        2.248   1.406  -0.569  0.00  0.00    +0.025 A 
BRANCH  16  19
ATOM     19  N   LIG    1        1.225  -2.161  -0.032  0.00  0.00    +0.006 N 
ATOM     20  O   LIG    1        0.299  -2.784   0.457  0.00  0.00    -0.130 OA
BRANCH  19  21
ATOM     21  O   LIG    1        2.164  -2.756  -0.530  0.00  0.00    -0.396 OA
ATOM     22  H   LIG    1        2.876  -2.277  -0.906  0.00  0.00    +0.329 HD
ENDBRANCH  19  21
ENDBRANCH  16  19
ENDBRANCH   1  13
TORSDOF 6
