REMARK  Name = ZINC06268312
REMARK                            x       y       z     vdW  Elec       q    Type
REMARK                         _______ _______ _______ _____ _____    ______ ____
ROOT
ATOM      1  C   LIG    1        0.872  -1.993  -1.250  0.00  0.00    +0.008 C 
ATOM      2  C   LIG    1        0.940  -0.470  -1.119  0.00  0.00    +0.001 C 
ATOM      3  C   LIG    1        0.002  -0.004   0.002  0.00  0.00    +0.052 C 
ATOM      4  C   LIG    1       -0.019   1.526   0.010  0.00  0.00    +0.170 C 
ATOM      5  N   LIG    1        1.355   2.154   0.028  0.00  0.00    -0.277 N 
ATOM      6  H   LIG    1        1.490   3.132   0.310  0.00  0.00    +0.304 HD
ATOM      7  C   LIG    1        2.378   1.394  -0.332  0.00  0.00    +0.237 C 
ATOM      8  C   LIG    1       -0.765   2.027  -1.227  0.00  0.00    +0.057 C 
ATOM      9  C   LIG    1        2.366  -0.046  -0.756  0.00  0.00    +0.127 C 
ENDROOT
BRANCH   7  10
ATOM     10  N   LIG    1        3.585   2.042  -0.300  0.00  0.00    -0.254 N 
ATOM     11  H   LIG    1        3.629   2.973  -0.031  0.00  0.00    +0.288 HD
ATOM     12  H   LIG    1        4.396   1.569  -0.547  0.00  0.00    +0.288 HD
ENDBRANCH   7  10
TORSDOF 1
