REMARK  Name = ZINC08536496
REMARK                            x       y       z     vdW  Elec       q    Type
REMARK                         _______ _______ _______ _____ _____    ______ ____
ROOT
ATOM      1  C   LIG    1       -1.259  -0.762  -0.108  0.00  0.00    +0.139 A 
ATOM      2  N   LIG    1       -1.348  -2.130  -0.083  0.00  0.00    -0.337 N 
ATOM      3  C   LIG    1       -2.666  -2.452   0.091  0.00  0.00    +0.074 A 
ATOM      4  C   LIG    1       -3.381  -1.144   0.171  0.00  0.00    +0.097 A 
ATOM      5  H   LIG    1       -0.612  -2.755  -0.172  0.00  0.00    +0.167 HD
ATOM      6  N   LIG    1       -2.461  -0.206   0.049  0.00  0.00    -0.227 NA
ENDROOT
BRANCH   3   7
ATOM      7  C   LIG    1       -3.226  -3.737   0.176  0.00  0.00    +0.001 A 
ATOM      8  C   LIG    1       -4.380  -4.063  -0.578  0.00  0.00    +0.013 A 
ATOM      9  C   LIG    1       -4.915  -5.312  -0.488  0.00  0.00    +0.039 A 
ATOM     10  C   LIG    1       -4.330  -6.269   0.342  0.00  0.00    +0.123 A 
ATOM     11  F   LIG    1       -4.869  -7.505   0.423  0.00  0.00    -0.205 F 
ATOM     12  C   LIG    1       -3.193  -5.959   1.089  0.00  0.00    +0.039 A 
ATOM     13  C   LIG    1       -2.639  -4.718   1.011  0.00  0.00    +0.013 A 
ENDBRANCH   3   7
BRANCH   1  19
ATOM     14  C   LIG    1       -0.026   1.393  -0.283  0.00  0.00    +0.014 A 
ATOM     15  C   LIG    1        1.151   2.087  -0.443  0.00  0.00    +0.033 A 
ATOM     16  C   LIG    1        2.349   1.405  -0.597  0.00  0.00    +0.122 A 
ATOM     17  C   LIG    1        2.373   0.018  -0.593  0.00  0.00    +0.033 A 
ATOM     18  C   LIG    1        1.208  -0.695  -0.436  0.00  0.00    +0.014 A 
ATOM     19  C   LIG    1       -0.012  -0.013  -0.277  0.00  0.00    +0.017 A 
BRANCH  16  20
ATOM     20  N   LIG    1        3.610   2.163  -0.768  0.00  0.00    +0.006 N 
ATOM     21  O   LIG    1        3.592   3.480  -0.773  0.00  0.00    -0.130 OA
BRANCH  20  22
ATOM     22  O   LIG    1        4.750   1.520  -0.916  0.00  0.00    -0.396 OA
ATOM     23  H   LIG    1        4.763   0.583  -0.912  0.00  0.00    +0.329 HD
ENDBRANCH  20  22
ENDBRANCH  16  20
ENDBRANCH   1  19
BRANCH   4  24
ATOM     24  C   LIG    1       -4.827  -0.940   0.357  0.00  0.00    +0.005 A 
ATOM     25  C   LIG    1       -5.558  -1.724   1.266  0.00  0.00    +0.030 A 
ATOM     26  C   LIG    1       -6.911  -1.496   1.407  0.00  0.00    +0.111 A 
ATOM     27  N   LIG    1       -7.518  -0.560   0.703  0.00  0.00    -0.263 NA
ATOM     28  C   LIG    1       -6.874   0.199  -0.161  0.00  0.00    +0.111 A 
ATOM     29  C   LIG    1       -5.517   0.049  -0.365  0.00  0.00    +0.030 A 
ENDBRANCH   4  24
TORSDOF 5
