REMARK  Name = ZINC06484604
REMARK                            x       y       z     vdW  Elec       q    Type
REMARK                         _______ _______ _______ _____ _____    ______ ____
ROOT
ATOM      1  C   LIG    1        0.023  -0.697   1.175  0.00  0.00    +0.181 A 
ATOM      2  C   LIG    1        0.175  -0.013   0.007  0.00  0.00    +0.208 A 
ATOM      3  C   LIG    1        0.170  -0.721  -1.223  0.00  0.00    +0.238 A 
ATOM      4  C   LIG    1        0.007  -2.182  -1.162  0.00  0.00    +0.109 A 
ATOM      5  C   LIG    1       -0.006  -2.961  -2.327  0.00  0.00    +0.135 A 
ATOM      6  C   LIG    1       -0.166  -4.330  -2.229  0.00  0.00    +0.091 A 
ATOM      7  C   LIG    1       -0.315  -4.928  -0.982  0.00  0.00    +0.124 A 
ATOM      8  C   LIG    1       -0.303  -4.165   0.174  0.00  0.00    +0.092 A 
ATOM      9  C   LIG    1       -0.143  -2.789   0.097  0.00  0.00    +0.147 A 
ATOM     10  O   LIG    1        0.299  -0.141  -2.289  0.00  0.00    -0.283 OA
ATOM     11  O   LIG    1       -0.130  -2.032   1.214  0.00  0.00    -0.451 OA
ENDROOT
BRANCH   1  15
ATOM     12  C   LIG    1        0.033   1.465   4.833  0.00  0.00    +0.161 A 
ATOM     13  C   LIG    1        0.819   0.329   4.696  0.00  0.00    +0.050 A 
ATOM     14  C   LIG    1        0.818  -0.375   3.511  0.00  0.00    +0.015 A 
ATOM     15  C   LIG    1        0.024   0.054   2.444  0.00  0.00    +0.025 A 
ATOM     16  C   LIG    1       -0.763   1.201   2.580  0.00  0.00    +0.060 A 
ATOM     17  C   LIG    1       -0.760   1.899   3.772  0.00  0.00    +0.159 A 
BRANCH  12  19
ATOM     18  C   LIG    1        0.874   1.655   7.048  0.00  0.00    +0.277 C 
ATOM     19  O   LIG    1        0.037   2.155   6.003  0.00  0.00    -0.491 OA
ENDBRANCH  12  19
BRANCH  17  20
ATOM     20  O   LIG    1       -1.529   3.013   3.910  0.00  0.00    -0.503 OA
ATOM     21  H   LIG    1       -2.155   3.356   3.073  0.00  0.00    +0.292 HD
ENDBRANCH  17  20
ENDBRANCH   1  15
BRANCH   2  22
ATOM     22  O   LIG    1        0.326   1.340   0.019  0.00  0.00    -0.501 OA
ATOM     23  H   LIG    1        0.449   1.888  -0.927  0.00  0.00    +0.292 HD
ENDBRANCH   2  22
BRANCH   5  24
ATOM     24  O   LIG    1        0.140  -2.375  -3.542  0.00  0.00    -0.506 OA
ATOM     25  H   LIG    1        0.129  -2.990  -4.454  0.00  0.00    +0.292 HD
ENDBRANCH   5  24
BRANCH   7  26
ATOM     26  O   LIG    1       -0.472  -6.274  -0.897  0.00  0.00    -0.507 OA
ATOM     27  H   LIG    1       -0.591  -6.753   0.086  0.00  0.00    +0.292 HD
ENDBRANCH   7  26
TORSDOF 6
