REMARK  Name = ZINC08437239
REMARK                            x       y       z     vdW  Elec       q    Type
REMARK                         _______ _______ _______ _____ _____    ______ ____
ROOT
ATOM      1  C   LIG    1        1.414   3.231   0.069  0.00  0.00    +0.053 C 
ENDROOT
BRANCH   1   7
ATOM      2  C   LIG    1        3.329   6.001   4.915  0.00  0.00    +0.048 C 
ATOM      3  C   LIG    1        2.862   5.307   3.662  0.00  0.00    +0.003 C 
ATOM      4  C   LIG    1        3.530   5.478   2.512  0.00  0.00    +0.003 C 
ATOM      5  C   LIG    1        4.747   6.365   2.473  0.00  0.00    +0.048 C 
ATOM      6  C   LIG    1        3.073   4.797   1.284  0.00  0.00    +0.186 C 
ATOM      7  C   LIG    1        1.880   3.926   1.323  0.00  0.00    +0.013 C 
ATOM      8  C   LIG    1        1.209   3.759   2.471  0.00  0.00    +0.004 C 
ATOM      9  C   LIG    1       -0.011   2.876   2.509  0.00  0.00    +0.048 C 
ATOM     10  O   LIG    1        3.678   4.952   0.243  0.00  0.00    -0.287 OA
ATOM     11  C   LIG    1        1.669   4.437   3.700  0.00  0.00    +0.185 C 
ATOM     12  O   LIG    1        1.064   4.282   4.741  0.00  0.00    -0.287 OA
ENDBRANCH   1   7
BRANCH   1  13
ATOM     13  C   LIG    1        2.302   2.046  -0.207  0.00  0.00    -0.040 A 
ATOM     14  C   LIG    1        1.749   0.787  -0.353  0.00  0.00    +0.004 A 
ATOM     15  C   LIG    1        2.564  -0.300  -0.608  0.00  0.00    +0.000 A 
ATOM     16  C   LIG    1        3.931  -0.129  -0.717  0.00  0.00    +0.000 A 
ATOM     17  C   LIG    1        4.484   1.129  -0.571  0.00  0.00    +0.000 A 
ATOM     18  C   LIG    1        3.669   2.217  -0.317  0.00  0.00    +0.004 A 
ENDBRANCH   1  13
BRANCH   1  19
ATOM     19  C   LIG    1        1.481   4.205  -1.109  0.00  0.00    +0.013 C 
BRANCH  19  20
ATOM     20  C   LIG    1        0.891   3.540  -2.354  0.00  0.00    +0.001 C 
BRANCH  20  21
ATOM     21  C   LIG    1        0.958   4.513  -3.533  0.00  0.00    +0.001 C 
BRANCH  21  22
ATOM     22  C   LIG    1        0.369   3.848  -4.778  0.00  0.00    +0.011 C 
BRANCH  22  23
ATOM     23  C   LIG    1        0.436   4.822  -5.956  0.00  0.00    +0.120 C 
BRANCH  23  24
ATOM     24  C   LIG    1       -0.145   4.167  -7.183  0.00  0.00    +0.305 C 
ATOM     25  O   LIG    1       -0.569   3.037  -7.121  0.00  0.00    -0.251 OA
BRANCH  24  26
ATOM     26  O   LIG    1       -0.191   4.838  -8.344  0.00  0.00    -0.481 OA
ATOM     27  H   LIG    1        0.138   5.714  -8.392  0.00  0.00    +0.295 HD
ENDBRANCH  24  26
ENDBRANCH  23  24
ENDBRANCH  22  23
ENDBRANCH  21  22
ENDBRANCH  20  21
ENDBRANCH  19  20
ENDBRANCH   1  19
TORSDOF 9
