REMARK  Name = ZINC06920406
REMARK                            x       y       z     vdW  Elec       q    Type
REMARK                         _______ _______ _______ _____ _____    ______ ____
ROOT
ATOM      1  C   UNK A  0        0.000  -0.693  -1.206  0.00  0.00    +0.030 A 
ATOM      2  C   UNK A  0        0.013  -2.085  -1.212  0.00  0.00    +0.024 A 
ATOM      3  C   UNK A  0        0.011  -2.769  -2.406  0.00  0.00    +0.015 A 
ATOM      4  C   UNK A  0       -0.004  -2.065  -3.613  0.00  0.00    +0.037 A 
ATOM      5  C   UNK A  0       -0.017  -0.667  -3.604  0.00  0.00    +0.015 A 
ATOM      6  C   UNK A  0       -0.021   0.011  -2.407  0.00  0.00    +0.024 A 
ENDROOT
BRANCH   4   7
ATOM      7  C   UNK A  0       -0.006  -2.796  -4.895  0.00  0.00    +0.245 C 
ATOM      8  N   GLU A  1       -0.021  -2.116  -6.058  0.00  0.00    -0.298 N 
ATOM      9  H   GLU A  1       -0.030  -1.146  -6.053  0.00  0.00    +0.150 HD
ATOM     10  O   UNK A  0        0.006  -4.012  -4.902  0.00  0.00    -0.270 OA
BRANCH   8  11
ATOM     11  CA  GLU A  1       -0.022  -2.841  -7.331  0.00  0.00    +0.182 C 
BRANCH  11  12
ATOM     12  C   GLU A  1       -1.437  -3.212  -7.696  0.00  0.00    +0.325 C 
ATOM     13  O   GLU A  1       -2.363  -2.504  -7.340  0.00  0.00    -0.249 OA
BRANCH  12  14
ATOM     14  OXT GLU A  1       -1.654  -4.219  -8.348  0.00  0.00    -0.479 OA
ATOM     15  HXT GLU A  1       -0.942  -4.763  -8.622  0.00  0.00    +0.295 HD
ENDBRANCH  12  14
ENDBRANCH  11  12
BRANCH  11  16
ATOM     16  CB  GLU A  1        0.571  -1.952  -8.426  0.00  0.00    +0.045 C 
BRANCH  16  17
ATOM     17  CG  GLU A  1        2.045  -1.679  -8.118  0.00  0.00    +0.123 C 
BRANCH  17  18
ATOM     18  CD  GLU A  1        2.629  -0.803  -9.196  0.00  0.00    +0.305 C 
ATOM     19  OE1 GLU A  1        1.932  -0.432 -10.125  0.00  0.00    -0.251 OA
BRANCH  18  20
ATOM     20  OE2 GLU A  1        3.799  -0.466  -9.140  0.00  0.00    -0.481 OA
ATOM     21  HE2 GLU A  1        4.335  -0.751  -8.426  0.00  0.00    +0.295 HD
ENDBRANCH  18  20
ENDBRANCH  17  18
ENDBRANCH  16  17
ENDBRANCH  11  16
ENDBRANCH   8  11
ENDBRANCH   4   7
BRANCH   1  23
ATOM     22  C   UNK A  0       -0.018   1.461   0.010  0.00  0.00    +0.129 C 
ATOM     23  N   UNK A  0        0.002  -0.004   0.002  0.00  0.00    -0.327 N 
BRANCH  23  24
ATOM     24  C   UNK A  0        0.024  -0.743   1.267  0.00  0.00    +0.161 C 
BRANCH  24  25
ATOM     25  C   UNK A  0       -1.389  -1.016   1.714  0.00  0.00    +0.077 A 
ATOM     26  C   UNK A  0       -1.989  -2.235   1.400  0.00  0.00    +0.138 A 
ATOM     27  N   UNK A  0       -3.222  -2.497   1.780  0.00  0.00    -0.232 NA
ATOM     28  C   UNK A  0       -3.905  -1.583   2.474  0.00  0.00    +0.185 A 
ATOM     29  C   UNK A  0       -3.290  -0.346   2.790  0.00  0.00    +0.148 A 
ATOM     30  C   UNK A  0       -4.071   0.630   3.553  0.00  0.00    +0.149 A 
ATOM     31  N   UNK A  0       -5.306   0.295   3.900  0.00  0.00    -0.198 NA
ATOM     32  C   UNK A  0       -5.820  -0.885   3.569  0.00  0.00    +0.216 A 
ATOM     33  N   UNK A  0       -5.161  -1.799   2.885  0.00  0.00    -0.193 NA
ATOM     34  N   UNK A  0       -2.042  -0.104   2.401  0.00  0.00    -0.242 NA
BRANCH  30  35
ATOM     35  N   UNK A  0       -3.540   1.854   3.898  0.00  0.00    -0.341 N 
ATOM     36  H   UNK A  0       -4.072   2.488   4.403  0.00  0.00    +0.144 HD
ATOM     37  H   UNK A  0       -2.635   2.081   3.635  0.00  0.00    +0.144 HD
ENDBRANCH  30  35
BRANCH  32  38
ATOM     38  N   UNK A  0       -7.113  -1.169   3.964  0.00  0.00    -0.327 N 
ATOM     39  H   UNK A  0       -7.513  -2.023   3.736  0.00  0.00    +0.145 HD
ATOM     40  H   UNK A  0       -7.621  -0.515   4.469  0.00  0.00    +0.145 HD
ENDBRANCH  32  38
ENDBRANCH  24  25
ENDBRANCH  23  24
ENDBRANCH   1  23
TORSDOF 13
