REMARK  Name = ZINC06585598
REMARK                            x       y       z     vdW  Elec       q    Type
REMARK                         _______ _______ _______ _____ _____    ______ ____
ROOT
ATOM      1  C   LIG    1       -0.903   5.186   0.035  0.00  0.00    +0.203 A 
ATOM      2  N   LIG    1       -0.318   4.024   0.025  0.00  0.00    -0.231 NA
ATOM      3  C   LIG    1       -1.256   3.046   0.030  0.00  0.00    +0.147 A 
ATOM      4  C   LIG    1       -1.219   1.641   0.017  0.00  0.00    +0.150 A 
ATOM      5  N   LIG    1       -2.369   0.976   0.019  0.00  0.00    -0.185 NA
ATOM      6  C   LIG    1       -3.528   1.614   0.028  0.00  0.00    +0.313 A 
ATOM      7  F   LIG    1       -4.669   0.890   0.029  0.00  0.00    -0.161 F 
ATOM      8  N   LIG    1       -3.611   2.930   0.036  0.00  0.00    -0.182 NA
ATOM      9  C   LIG    1       -2.511   3.677   0.035  0.00  0.00    +0.170 A 
ATOM     10  N   LIG    1       -2.257   5.025   0.041  0.00  0.00    -0.288 N 
ENDROOT
BRANCH  10  11
ATOM     11  C1* LIG    1       -3.257   6.096   0.052  0.00  0.00    +0.225 C 
ATOM     12  C2* LIG    1       -3.693   6.390   1.500  0.00  0.00    +0.088 C 
ATOM     13  C3* LIG    1       -3.356   7.888   1.702  0.00  0.00    +0.150 C 
ATOM     14  C4* LIG    1       -3.286   8.404   0.242  0.00  0.00    +0.175 C 
ATOM     15  O4* LIG    1       -2.686   7.303  -0.479  0.00  0.00    -0.348 OA
BRANCH  13  16
ATOM     16  O3* LIG    1       -4.392   8.550   2.429  0.00  0.00    -0.389 OA
ATOM     17  H3* LIG    1       -4.534   8.200   3.319  0.00  0.00    +0.210 HD
ENDBRANCH  13  16
BRANCH  14  18
ATOM     18  C5* LIG    1       -2.405   9.651   0.153  0.00  0.00    +0.190 C 
BRANCH  18  19
ATOM     19  O5* LIG    1       -2.451  10.173  -1.177  0.00  0.00    -0.392 OA
ATOM     20  H5* LIG    1       -1.914  10.967  -1.306  0.00  0.00    +0.210 HD
ENDBRANCH  18  19
ENDBRANCH  14  18
ENDBRANCH  10  11
BRANCH   4  21
ATOM     21  N   LIG    1       -0.011   0.966   0.007  0.00  0.00    -0.341 N 
ATOM     22  H   LIG    1        0.822   1.462   0.002  0.00  0.00    +0.144 HD
ATOM     23  H   LIG    1        0.056   0.391   0.823  0.00  0.00    +0.144 HD
ENDBRANCH   4  21
TORSDOF 5
