REMARK  Name = ZINC08536493
REMARK                            x       y       z     vdW  Elec       q    Type
REMARK                         _______ _______ _______ _____ _____    ______ ____
ROOT
ATOM      1  C   LIG    1       -1.273  -0.765  -0.109  0.00  0.00    +0.139 A 
ATOM      2  N   LIG    1       -1.386  -2.126  -0.098  0.00  0.00    -0.337 N 
ATOM      3  C   LIG    1       -2.717  -2.422   0.077  0.00  0.00    +0.074 A 
ATOM      4  C   LIG    1       -3.379  -1.209   0.169  0.00  0.00    +0.097 A 
ATOM      5  H   LIG    1       -0.662  -2.765  -0.196  0.00  0.00    +0.167 HD
ATOM      6  N   LIG    1       -2.462  -0.233   0.056  0.00  0.00    -0.227 NA
ENDROOT
BRANCH   3   7
ATOM      7  C   LIG    1       -3.322  -3.766   0.153  0.00  0.00    +0.001 A 
ATOM      8  C   LIG    1       -4.462  -4.066  -0.597  0.00  0.00    +0.013 A 
ATOM      9  C   LIG    1       -5.022  -5.323  -0.523  0.00  0.00    +0.039 A 
ATOM     10  C   LIG    1       -4.456  -6.290   0.293  0.00  0.00    +0.123 A 
ATOM     11  F   LIG    1       -5.009  -7.521   0.362  0.00  0.00    -0.205 F 
ATOM     12  C   LIG    1       -3.325  -5.999   1.040  0.00  0.00    +0.039 A 
ATOM     13  C   LIG    1       -2.753  -4.746   0.970  0.00  0.00    +0.013 A 
ENDBRANCH   3   7
BRANCH   1  19
ATOM     14  C   LIG    1       -0.026   1.386  -0.261  0.00  0.00    +0.013 A 
ATOM     15  C   LIG    1        1.151   2.085  -0.414  0.00  0.00    +0.023 A 
ATOM     16  C   LIG    1        2.351   1.403  -0.580  0.00  0.00    +0.025 A 
ATOM     17  C   LIG    1        2.368   0.012  -0.593  0.00  0.00    +0.023 A 
ATOM     18  C   LIG    1        1.194  -0.694  -0.441  0.00  0.00    +0.013 A 
ATOM     19  C   LIG    1       -0.013  -0.011  -0.273  0.00  0.00    +0.017 A 
BRANCH  16  20
ATOM     20  N   LIG    1        3.541   2.114  -0.735  0.00  0.00    -0.358 N 
ATOM     21  H   LIG    1        4.378   1.639  -0.851  0.00  0.00    +0.142 HD
ATOM     22  H   LIG    1        3.530   3.084  -0.727  0.00  0.00    +0.142 HD
ENDBRANCH  16  20
ENDBRANCH   1  19
BRANCH   4  23
ATOM     23  C   LIG    1       -4.835  -1.020   0.363  0.00  0.00    +0.005 A 
ATOM     24  C   LIG    1       -5.548  -1.814   1.268  0.00  0.00    +0.030 A 
ATOM     25  C   LIG    1       -6.903  -1.605   1.417  0.00  0.00    +0.111 A 
ATOM     26  N   LIG    1       -7.525  -0.673   0.721  0.00  0.00    -0.263 NA
ATOM     27  C   LIG    1       -6.891   0.097  -0.143  0.00  0.00    +0.111 A 
ATOM     28  C   LIG    1       -5.534  -0.040  -0.350  0.00  0.00    +0.030 A 
ENDBRANCH   4  23
TORSDOF 4
