REMARK  Name = ZINC06627681
REMARK                            x       y       z     vdW  Elec       q    Type
REMARK                         _______ _______ _______ _____ _____    ______ ____
ROOT
ATOM      1  C   LIG    1        3.842   0.672  -3.893  0.00  0.00    +0.039 C 
ATOM      2  C   LIG    1        4.197   1.841  -3.248  0.00  0.00    +0.090 C 
ATOM      3  N   LIG    1        5.473   2.063  -2.965  0.00  0.00    -0.289 NA
ATOM      4  H   LIG    1        5.726   2.883  -2.512  0.00  0.00    +0.125 HD
ATOM      5  C   LIG    1        6.407   1.182  -3.292  0.00  0.00    +0.192 C 
ATOM      6  N   LIG    1        6.107   0.050  -3.911  0.00  0.00    -0.274 NA
ATOM      7  H   LIG    1        6.443  -0.706  -3.315  0.00  0.00    +0.126 HD
ATOM      8  C   LIG    1        4.848  -0.240  -4.220  0.00  0.00    +0.126 C 
ENDROOT
BRANCH   5   9
ATOM      9  N   LIG    1        7.728   1.452  -2.979  0.00  0.00    -0.303 NA
ATOM     10  H   LIG    1        8.421   0.815  -3.213  0.00  0.00    +0.121 HD
ATOM     11  H   LIG    1        7.960   2.277  -2.526  0.00  0.00    +0.121 HD
ENDBRANCH   5   9
BRANCH   8  12
ATOM     12  N   LIG    1        4.537  -1.427  -4.863  0.00  0.00    -0.315 NA
ATOM     13  H   LIG    1        5.241  -2.056  -5.087  0.00  0.00    +0.120 HD
ATOM     14  H   LIG    1        3.616  -1.630  -5.089  0.00  0.00    +0.120 HD
ENDBRANCH   8  12
BRANCH   1  15
ATOM     15  C   LIG    1        2.402   0.386  -4.230  0.00  0.00    +0.043 C 
BRANCH  15  18
ATOM     16  C   LIG    1        0.606  -0.608  -1.056  0.00  0.00    +0.165 A 
ATOM     17  C   LIG    1        1.173   0.160  -2.063  0.00  0.00    +0.053 A 
ATOM     18  C   LIG    1        1.787  -0.452  -3.139  0.00  0.00    -0.040 A 
ATOM     19  C   LIG    1        1.839  -1.831  -3.217  0.00  0.00    +0.053 A 
ATOM     20  C   LIG    1        1.275  -2.606  -2.215  0.00  0.00    +0.165 A 
ATOM     21  C   LIG    1        0.661  -1.994  -1.128  0.00  0.00    +0.204 A 
BRANCH  16  23
ATOM     22  C   LIG    1       -0.017   1.425   0.010  0.00  0.00    +0.277 C 
ATOM     23  O   LIG    1        0.002  -0.004   0.002  0.00  0.00    -0.491 OA
ENDBRANCH  16  23
BRANCH  20  24
ATOM     24  O   LIG    1        1.326  -3.963  -2.293  0.00  0.00    -0.491 OA
ATOM     25  C   LIG    1        1.977  -4.523  -3.435  0.00  0.00    +0.277 C 
ENDBRANCH  20  24
BRANCH  21  26
ATOM     26  O   LIG    1        0.111  -2.751  -0.140  0.00  0.00    -0.488 OA
ATOM     27  C   LIG    1       -1.260  -3.124  -0.295  0.00  0.00    +0.277 C 
ENDBRANCH  21  26
ENDBRANCH  15  18
ENDBRANCH   1  15
TORSDOF 7
