REMARK  Name = ZINC06855387
REMARK                            x       y       z     vdW  Elec       q    Type
REMARK                         _______ _______ _______ _____ _____    ______ ____
ROOT
ATOM      1  C   LIG    1       -2.139   1.802  -1.163  0.00  0.00    +0.066 C 
ATOM      2  C   LIG    1       -3.042   1.589   0.029  0.00  0.00    +0.144 C 
ATOM      3  N   LIG    1       -4.395   1.947  -0.412  0.00  0.00    -0.283 N 
ATOM      4  C   LIG    1       -4.324   2.328  -1.701  0.00  0.00    +0.282 C 
ATOM      5  O   LIG    1       -5.269   2.689  -2.374  0.00  0.00    -0.267 OA
ATOM      6  C   LIG    1       -2.925   2.246  -2.175  0.00  0.00    +0.188 C 
ENDROOT
BRANCH   2   7
ATOM      7  C   LIG    1       -3.003   0.144   0.457  0.00  0.00    -0.019 A 
ATOM      8  C   LIG    1       -3.722  -0.803  -0.247  0.00  0.00    +0.009 A 
ATOM      9  C   LIG    1       -3.690  -2.130   0.142  0.00  0.00    +0.049 A 
ATOM     10  C   LIG    1       -2.934  -2.511   1.239  0.00  0.00    +0.158 A 
ATOM     11  C   LIG    1       -2.210  -1.557   1.947  0.00  0.00    +0.162 A 
ATOM     12  C   LIG    1       -2.243  -0.231   1.549  0.00  0.00    +0.055 A 
BRANCH  10  13
ATOM     13  O   LIG    1       -2.901  -3.816   1.623  0.00  0.00    -0.503 OA
ATOM     14  H   LIG    1       -2.196  -4.330   1.208  0.00  0.00    +0.292 HD
ENDBRANCH  10  13
BRANCH  11  15
ATOM     15  O   LIG    1       -1.467  -1.927   3.025  0.00  0.00    -0.491 OA
ATOM     16  C   LIG    1       -0.750  -0.894   3.704  0.00  0.00    +0.277 C 
ENDBRANCH  11  15
ENDBRANCH   2   7
BRANCH   1  18
ATOM     17  C   LIG    1       -0.013   1.086   0.008  0.00  0.00    +0.091 C 
ATOM     18  C   LIG    1       -0.742   1.585  -1.213  0.00  0.00    +0.162 C 
ATOM     19  O   LIG    1       -0.130   1.801  -2.239  0.00  0.00    -0.292 OA
ENDBRANCH   1  18
BRANCH   6  20
ATOM     20  O   LIG    1       -2.499   2.561  -3.418  0.00  0.00    -0.502 OA
ATOM     21  H   LIG    1       -1.592   2.481  -3.637  0.00  0.00    +0.292 HD
ENDBRANCH   6  20
BRANCH   3  22
ATOM     22  C   LIG    1       -5.609   1.899   0.406  0.00  0.00    +0.114 C 
BRANCH  22  23
ATOM     23  C   LIG    1       -5.806   3.245   1.106  0.00  0.00    +0.056 C 
BRANCH  23  24
ATOM     24  C   LIG    1       -7.056   3.195   1.948  0.00  0.00    -0.021 A 
ATOM     25  C   LIG    1       -8.281   3.603   1.583  0.00  0.00    +0.087 A 
ATOM     26  N   LIG    1       -9.164   3.402   2.609  0.00  0.00    -0.360 N 
ATOM     27  C   LIG    1       -8.512   2.847   3.687  0.00  0.00    +0.047 A 
ATOM     28  C   LIG    1       -8.923   2.451   4.955  0.00  0.00    +0.026 A 
ATOM     29  C   LIG    1       -8.011   1.899   5.829  0.00  0.00    +0.002 A 
ATOM     30  C   LIG    1       -6.681   1.747   5.461  0.00  0.00    +0.001 A 
ATOM     31  C   LIG    1       -6.255   2.134   4.222  0.00  0.00    +0.010 A 
ATOM     32  H   LIG    1      -10.109   3.619   2.581  0.00  0.00    +0.165 HD
ATOM     33  C   LIG    1       -7.163   2.687   3.318  0.00  0.00    +0.003 A 
ENDBRANCH  23  24
ENDBRANCH  22  23
ENDBRANCH   3  22
TORSDOF 8
