REMARK  Name = ZINC05925100
REMARK                            x       y       z     vdW  Elec       q    Type
REMARK                         _______ _______ _______ _____ _____    ______ ____
ROOT
ATOM      1  C   LIG    1       -4.856   0.233   0.038  0.00  0.00    +0.250 C 
ATOM      2  N   LIG    1       -6.047  -0.397   0.045  0.00  0.00    -0.259 N 
ATOM      3  H   LIG    1       -6.083  -1.367   0.044  0.00  0.00    +0.157 HD
ATOM      4  O   LIG    1       -4.810   1.448   0.040  0.00  0.00    -0.270 OA
ENDROOT
BRANCH   1   7
ATOM      5  C   LIG    1       -1.201  -0.638   0.010  0.00  0.00    +0.166 A 
ATOM      6  C   LIG    1       -2.370   0.100   0.019  0.00  0.00    +0.062 A 
ATOM      7  C   LIG    1       -3.606  -0.552   0.027  0.00  0.00    +0.044 A 
ATOM      8  C   LIG    1       -3.657  -1.948   0.026  0.00  0.00    +0.062 A 
ATOM      9  C   LIG    1       -2.485  -2.681   0.016  0.00  0.00    +0.166 A 
ATOM     10  C   LIG    1       -1.254  -2.029   0.003  0.00  0.00    +0.204 A 
BRANCH   5  12
ATOM     11  C   LIG    1       -0.017   1.425   0.010  0.00  0.00    +0.277 C 
ATOM     12  O   LIG    1        0.002  -0.004   0.002  0.00  0.00    -0.491 OA
ENDBRANCH   5  12
BRANCH   9  13
ATOM     13  O   LIG    1       -2.533  -4.040   0.015  0.00  0.00    -0.491 OA
ATOM     14  C   LIG    1       -3.829  -4.643   0.023  0.00  0.00    +0.277 C 
ENDBRANCH   9  13
BRANCH  10  15
ATOM     15  O   LIG    1       -0.104  -2.752  -0.011  0.00  0.00    -0.488 OA
ATOM     16  C   LIG    1        0.457  -3.104   1.255  0.00  0.00    +0.277 C 
ENDBRANCH  10  15
ENDBRANCH   1   7
BRANCH   2  17
ATOM     17  C   LIG    1       -7.224   0.342   0.055  0.00  0.00    +0.190 A 
ATOM     18  N   LIG    1       -7.406   1.655   0.053  0.00  0.00    -0.124 NA
ATOM     19  N   LIG    1       -8.559   2.167   0.063  0.00  0.00    -0.119 NA
ATOM     20  C   LIG    1       -9.653   1.431   0.077  0.00  0.00    +0.256 A 
ATOM     21  S   LIG    1       -8.928  -0.206   0.067  0.00  0.00    -0.011 S 
BRANCH  20  22
ATOM     22  S   LIG    1      -11.346   1.920   0.093  0.00  0.00    +0.081 S 
ATOM     23  O   LIG    1      -12.033   0.979   0.907  0.00  0.00    -0.151 OA
ATOM     24  O   LIG    1      -11.710   2.168  -1.258  0.00  0.00    -0.151 OA
BRANCH  22  25
ATOM     25  N   LIG    1      -11.428   3.375   0.880  0.00  0.00    -0.202 NA
ATOM     26  H   LIG    1      -10.786   3.587   1.575  0.00  0.00    +0.144 HD
ATOM     27  H   LIG    1      -12.118   4.015   0.645  0.00  0.00    +0.144 HD
ENDBRANCH  22  25
ENDBRANCH  20  22
ENDBRANCH   2  17
TORSDOF 7
