REMARK  Name = ZINC08536493
REMARK                            x       y       z     vdW  Elec       q    Type
REMARK                         _______ _______ _______ _____ _____    ______ ____
ROOT
ATOM      1  C   LIG    1       -1.265  -0.774   0.122  0.00  0.00    +0.117 A 
ATOM      2  N   LIG    1       -2.510  -0.217   0.124  0.00  0.00    -0.339 N 
ATOM      3  C   LIG    1       -3.415  -1.244  -0.028  0.00  0.00    +0.072 A 
ATOM      4  C   LIG    1       -2.672  -2.409  -0.117  0.00  0.00    +0.072 A 
ATOM      5  H   LIG    1       -2.719   0.726   0.215  0.00  0.00    +0.167 HD
ATOM      6  N   LIG    1       -1.375  -2.075  -0.026  0.00  0.00    -0.339 N 
ATOM      7  H   LIG    1       -0.633  -2.699  -0.063  0.00  0.00    +0.167 HD
ENDROOT
BRANCH   4   8
ATOM      8  C   LIG    1       -3.211  -3.779  -0.288  0.00  0.00    +0.001 A 
ATOM      9  C   LIG    1       -4.184  -4.032  -1.254  0.00  0.00    +0.013 A 
ATOM     10  C   LIG    1       -4.683  -5.309  -1.410  0.00  0.00    +0.039 A 
ATOM     11  C   LIG    1       -4.219  -6.339  -0.608  0.00  0.00    +0.123 A 
ATOM     12  F   LIG    1       -4.711  -7.587  -0.764  0.00  0.00    -0.205 F 
ATOM     13  C   LIG    1       -3.252  -6.093   0.353  0.00  0.00    +0.039 A 
ATOM     14  C   LIG    1       -2.742  -4.820   0.512  0.00  0.00    +0.013 A 
ENDBRANCH   4   8
BRANCH   1  20
ATOM     15  C   LIG    1       -0.008   1.356   0.413  0.00  0.00    +0.013 A 
ATOM     16  C   LIG    1        1.178   2.045   0.541  0.00  0.00    +0.023 A 
ATOM     17  C   LIG    1        2.388   1.359   0.518  0.00  0.00    +0.025 A 
ATOM     18  C   LIG    1        2.405  -0.023   0.365  0.00  0.00    +0.023 A 
ATOM     19  C   LIG    1        1.222  -0.718   0.237  0.00  0.00    +0.013 A 
ATOM     20  C   LIG    1        0.005  -0.032   0.260  0.00  0.00    +0.016 A 
BRANCH  17  21
ATOM     21  N   LIG    1        3.587   2.059   0.647  0.00  0.00    -0.358 N 
ATOM     22  H   LIG    1        4.431   1.582   0.631  0.00  0.00    +0.142 HD
ATOM     23  H   LIG    1        3.577   3.023   0.753  0.00  0.00    +0.142 HD
ENDBRANCH  17  21
ENDBRANCH   1  20
BRANCH   3  24
ATOM     24  C   LIG    1       -4.884  -1.127  -0.083  0.00  0.00    +0.003 A 
ATOM     25  C   LIG    1       -5.704  -1.972   0.678  0.00  0.00    +0.030 A 
ATOM     26  C   LIG    1       -7.072  -1.827   0.596  0.00  0.00    +0.111 A 
ATOM     27  N   LIG    1       -7.611  -0.910  -0.185  0.00  0.00    -0.263 NA
ATOM     28  C   LIG    1       -6.877  -0.094  -0.918  0.00  0.00    +0.111 A 
ATOM     29  C   LIG    1       -5.500  -0.164  -0.894  0.00  0.00    +0.030 A 
ENDBRANCH   3  24
TORSDOF 4
