REMARK  Name = ZINC08214783
REMARK                            x       y       z     vdW  Elec       q    Type
REMARK                         _______ _______ _______ _____ _____    ______ ____
ROOT
ATOM      1  C   LIG    1        5.264   1.351   0.875  0.00  0.00    +0.226 C 
ATOM      2  C   LIG    1        4.127   0.357   1.136  0.00  0.00    +0.064 C 
ATOM      3  C   LIG    1        4.514  -0.470   2.365  0.00  0.00    +0.014 C 
ATOM      4  C   LIG    1        2.824   1.111   1.332  0.00  0.00    +0.088 C 
ATOM      5  C   LIG    1        2.422   1.691  -0.033  0.00  0.00    +0.052 C 
ATOM      6  C   LIG    1        3.450   2.723  -0.459  0.00  0.00    +0.056 C 
ATOM      7  C   LIG    1        4.521   2.341  -1.482  0.00  0.00    +0.016 C 
ATOM      8  C   LIG    1        4.533   0.940  -2.087  0.00  0.00    +0.015 C 
ATOM      9  C   LIG    1        4.986   3.448  -2.445  0.00  0.00    +0.015 C 
ATOM     10  C   LIG    1        1.033   2.231   0.004  0.00  0.00    -0.019 C 
ATOM     11  C   LIG    1       -0.018   1.481   0.010  0.00  0.00    -0.045 C 
ATOM     12  C   LIG    1        0.002  -0.004   0.002  0.00  0.00    +0.076 C 
ATOM     13  C   LIG    1        0.997  -0.625   0.934  0.00  0.00    +0.140 C 
ATOM     14  C   LIG    1        0.385  -1.644   1.874  0.00  0.00    +0.191 C 
ATOM     15  O   LIG    1       -0.509  -2.427   1.622  0.00  0.00    -0.289 OA
ATOM     16  C   LIG    1        1.096  -1.490   3.150  0.00  0.00    -0.009 C 
ATOM     17  C   LIG    1        1.032  -2.484   4.282  0.00  0.00    +0.047 C 
ATOM     18  C   LIG    1        1.810  -0.361   3.184  0.00  0.00    -0.011 C 
ATOM     19  C   LIG    1        1.649   0.368   1.885  0.00  0.00    +0.084 C 
ATOM     20  C   LIG    1        4.899   2.511  -0.021  0.00  0.00    +0.160 C 
ENDROOT
BRANCH  13  21
ATOM     21  O   LIG    1        1.997  -1.283   0.158  0.00  0.00    -0.380 OA
ATOM     22  H   LIG    1        1.653  -1.975  -0.422  0.00  0.00    +0.211 HD
ENDBRANCH  13  21
BRANCH   4  23
ATOM     23  O   LIG    1        3.080   2.229   2.196  0.00  0.00    -0.387 OA
ATOM     24  H   LIG    1        3.283   1.982   3.109  0.00  0.00    +0.210 HD
ENDBRANCH   4  23
BRANCH   1  25
ATOM     25  O   LIG    1        6.400   0.634   0.318  0.00  0.00    -0.457 OA
BRANCH  25  26
ATOM     26  C   LIG    1        7.296   0.143   1.188  0.00  0.00    +0.307 C 
ATOM     27  O   LIG    1        7.138   0.305   2.374  0.00  0.00    -0.251 OA
BRANCH  26  28
ATOM     28  C   LIG    1        8.500  -0.612   0.684  0.00  0.00    +0.120 C 
BRANCH  28  29
ATOM     29  C   LIG    1        9.354  -1.060   1.871  0.00  0.00    +0.011 C 
BRANCH  29  30
ATOM     30  C   LIG    1       10.576  -1.825   1.360  0.00  0.00    +0.001 C 
BRANCH  30  31
ATOM     31  C   LIG    1       11.431  -2.274   2.547  0.00  0.00    +0.000 C 
BRANCH  31  32
ATOM     32  C   LIG    1       12.652  -3.040   2.036  0.00  0.00    +0.000 C 
BRANCH  32  33
ATOM     33  C   LIG    1       13.507  -3.488   3.223  0.00  0.00    +0.000 C 
BRANCH  33  34
ATOM     34  C   LIG    1       14.729  -4.254   2.712  0.00  0.00    -0.000 C 
BRANCH  34  35
ATOM     35  C   LIG    1       15.584  -4.702   3.899  0.00  0.00    -0.000 C 
BRANCH  35  36
ATOM     36  C   LIG    1       16.805  -5.468   3.388  0.00  0.00    -0.000 C 
BRANCH  36  37
ATOM     37  C   LIG    1       17.660  -5.916   4.575  0.00  0.00    -0.000 C 
BRANCH  37  38
ATOM     38  C   LIG    1       18.882  -6.682   4.063  0.00  0.00    -0.000 C 
BRANCH  38  40
ATOM     39  C   LIG    1       20.958  -7.896   4.739  0.00  0.00    +0.004 C 
ATOM     40  C   LIG    1       19.736  -7.130   5.251  0.00  0.00    -0.003 C 
ENDBRANCH  38  40
ENDBRANCH  37  38
ENDBRANCH  36  37
ENDBRANCH  35  36
ENDBRANCH  34  35
ENDBRANCH  33  34
ENDBRANCH  32  33
ENDBRANCH  31  32
ENDBRANCH  30  31
ENDBRANCH  29  30
ENDBRANCH  28  29
ENDBRANCH  26  28
ENDBRANCH  25  26
ENDBRANCH   1  25
BRANCH  11  41
ATOM     41  C   LIG    1       -1.360   2.159   0.020  0.00  0.00    +0.186 C 
BRANCH  41  42
ATOM     42  O   LIG    1       -1.178   3.576   0.027  0.00  0.00    -0.391 OA
ATOM     43  H   LIG    1       -2.004   4.080   0.034  0.00  0.00    +0.210 HD
ENDBRANCH  41  42
ENDBRANCH  11  41
BRANCH  20  44
ATOM     44  O   LIG    1        5.625   3.740   0.284  0.00  0.00    -0.454 OA
BRANCH  44  45
ATOM     45  C   LIG    1        6.891   3.610   0.709  0.00  0.00    +0.305 C 
ATOM     46  C   LIG    1        7.703   4.835   1.043  0.00  0.00    +0.136 C 
ATOM     47  O   LIG    1        7.381   2.511   0.824  0.00  0.00    -0.251 OA
ENDBRANCH  44  45
ENDBRANCH  20  44
TORSDOF 20
