REMARK  Name = ZINC06482605
REMARK                            x       y       z     vdW  Elec       q    Type
REMARK                         _______ _______ _______ _____ _____    ______ ____
ROOT
ATOM      1  C   LIG    1        0.657  -2.015  -1.121  0.00  0.00    +0.139 A 
ATOM      2  C   LIG    1        1.245  -2.746  -2.137  0.00  0.00    +0.052 A 
ATOM      3  C   LIG    1        1.064  -4.159  -1.794  0.00  0.00    +0.014 A 
ATOM      4  C   LIG    1        1.432  -5.354  -2.418  0.00  0.00    +0.011 A 
ATOM      5  C   LIG    1        1.114  -6.549  -1.839  0.00  0.00    +0.001 A 
ATOM      6  C   LIG    1        0.425  -6.587  -0.634  0.00  0.00    +0.002 A 
ATOM      7  C   LIG    1        0.052  -5.423  -0.001  0.00  0.00    +0.026 A 
ATOM      8  C   LIG    1        0.366  -4.191  -0.573  0.00  0.00    +0.048 A 
ATOM      9  N   LIG    1        0.135  -2.894  -0.180  0.00  0.00    -0.348 N 
ATOM     10  H   LIG    1       -0.325  -2.631   0.633  0.00  0.00    +0.166 HD
ENDROOT
BRANCH   1  11
ATOM     11  C   LIG    1        0.602  -0.603  -1.049  0.00  0.00    +0.357 C 
ATOM     12  O   LIG    1        1.095   0.071  -1.934  0.00  0.00    -0.243 OA
BRANCH  11  14
ATOM     13  C   LIG    1       -0.017   1.425   0.010  0.00  0.00    +0.280 C 
ATOM     14  O   LIG    1        0.002  -0.004   0.002  0.00  0.00    -0.463 OA
ENDBRANCH  11  14
ENDBRANCH   1  11
BRANCH   2  15
ATOM     15  S   LIG    1        2.053  -2.103  -3.564  0.00  0.00    -0.086 S 
BRANCH  15  16
ATOM     16  C   LIG    1        3.734  -1.933  -3.063  0.00  0.00    +0.013 A 
ATOM     17  C   LIG    1        4.116  -2.293  -1.776  0.00  0.00    +0.015 A 
ATOM     18  C   LIG    1        5.434  -2.158  -1.386  0.00  0.00    +0.001 A 
ATOM     19  C   LIG    1        6.372  -1.664  -2.274  0.00  0.00    +0.000 A 
ATOM     20  C   LIG    1        5.995  -1.304  -3.555  0.00  0.00    +0.001 A 
ATOM     21  C   LIG    1        4.680  -1.442  -3.954  0.00  0.00    +0.015 A 
ENDBRANCH  15  16
ENDBRANCH   2  15
TORSDOF 4
