REMARK  Name = ZINC06070637
REMARK                            x       y       z     vdW  Elec       q    Type
REMARK                         _______ _______ _______ _____ _____    ______ ____
ROOT
ATOM      1  C   LIG    1        1.229  -2.184  -0.021  0.00  0.00    +0.044 C 
ATOM      2  C   LIG    1        1.208  -0.677  -0.013  0.00  0.00    -0.047 A 
ATOM      3  C   LIG    1        2.396   0.030  -0.021  0.00  0.00    +0.004 A 
ATOM      4  C   LIG    1        2.380   1.413  -0.013  0.00  0.00    +0.007 A 
ATOM      5  C   LIG    1        1.176   2.091   0.002  0.00  0.00    -0.007 A 
ATOM      6  C   LIG    1       -0.017   1.383   0.010  0.00  0.00    +0.123 A 
ATOM      7  C   LIG    1        0.002  -0.004   0.002  0.00  0.00    +0.049 A 
ENDROOT
BRANCH   6   8
ATOM      8  O   LIG    1       -1.202   2.048   0.019  0.00  0.00    -0.495 OA
ATOM      9  C   LIG    1       -2.391   1.255   0.020  0.00  0.00    +0.277 C 
ENDBRANCH   6   8
BRANCH   5  10
ATOM     10  C   LIG    1        1.160   3.598   0.010  0.00  0.00    +0.022 C 
BRANCH  10  11
ATOM     11  C   LIG    1        1.042   4.099   1.450  0.00  0.00    -0.074 C 
ATOM     12  C   LIG    1        0.899   5.622   1.450  0.00  0.00    -0.014 C 
BRANCH  11  13
ATOM     13  N   LIG    1        2.241   3.731   2.224  0.00  0.00    +0.380 N 
ATOM     14  H   LIG    1        2.156   4.104   3.176  0.00  0.00    -0.090 HD
ATOM     15  H   LIG    1        3.073   4.122   1.785  0.00  0.00    -0.090 HD
ATOM     16  H   LIG    1        2.328   2.717   2.271  0.00  0.00    -0.090 HD
ENDBRANCH  11  13
ENDBRANCH  10  11
ENDBRANCH   5  10
TORSDOF 4
