REMARK  Name = ZINC07999073
REMARK                            x       y       z     vdW  Elec       q    Type
REMARK                         _______ _______ _______ _____ _____    ______ ____
ROOT
ATOM      1  C   LIG    1       -1.571  -0.513   0.055  0.00  0.00    +0.077 C 
ATOM      2  C   LIG    1       -2.509   0.075   1.114  0.00  0.00    +0.017 C 
ATOM      3  C   LIG    1       -2.109  -0.456   2.493  0.00  0.00    -0.076 C 
ATOM      4  N   LIG    1       -2.211  -1.920   2.506  0.00  0.00    +0.380 N 
ATOM      5  H   LIG    1       -3.150  -2.193   2.255  0.00  0.00    -0.082 HD
ATOM      6  C   LIG    1       -1.263  -2.494   1.543  0.00  0.00    -0.076 C 
ATOM      7  C   LIG    1       -1.630  -2.042   0.128  0.00  0.00    +0.017 C 
ENDROOT
BRANCH   1   9
ATOM      8  C   LIG    1        0.741  -0.666  -0.556  0.00  0.00    +0.194 C 
ATOM      9  O   LIG    1       -0.234  -0.074   0.304  0.00  0.00    -0.376 OA
ENDBRANCH   1   9
BRANCH   1  10
ATOM     10  C   LIG    1       -2.012  -0.050  -1.335  0.00  0.00    +0.143 C 
BRANCH  10  11
ATOM     11  S   LIG    1       -2.052   1.763  -1.383  0.00  0.00    +0.057 S 
ATOM     12  O   LIG    1       -0.723   2.265  -1.442  0.00  0.00    -0.252 OA
BRANCH  11  13
ATOM     13  C   LIG    1       -2.717   2.133  -2.973  0.00  0.00    +0.039 A 
ATOM     14  C   LIG    1       -1.873   2.284  -4.057  0.00  0.00    +0.017 A 
ATOM     15  C   LIG    1       -2.395   2.574  -5.304  0.00  0.00    +0.001 A 
ATOM     16  C   LIG    1       -3.761   2.712  -5.466  0.00  0.00    +0.000 A 
ATOM     17  C   LIG    1       -4.605   2.560  -4.382  0.00  0.00    +0.001 A 
ATOM     18  C   LIG    1       -4.083   2.266  -3.136  0.00  0.00    +0.017 A 
ENDBRANCH  11  13
ENDBRANCH  10  11
ENDBRANCH   1  10
BRANCH   4  19
ATOM     19  C   LIG    1       -1.902  -2.419   3.852  0.00  0.00    -0.074 C 
BRANCH  19  20
ATOM     20  C   LIG    1       -2.129  -3.931   3.900  0.00  0.00    +0.019 C 
BRANCH  20  21
ATOM     21  C   LIG    1       -1.812  -4.443   5.282  0.00  0.00    -0.024 A 
ATOM     22  C   LIG    1       -0.643  -4.959   5.693  0.00  0.00    +0.087 A 
ATOM     23  N   LIG    1       -0.729  -5.316   7.011  0.00  0.00    -0.360 N 
ATOM     24  C   LIG    1       -1.988  -5.030   7.493  0.00  0.00    +0.047 A 
ATOM     25  C   LIG    1       -2.595  -5.189   8.734  0.00  0.00    +0.029 A 
ATOM     26  C   LIG    1       -3.899  -4.786   8.918  0.00  0.00    +0.040 A 
ATOM     27  C   LIG    1       -4.624  -4.231   7.870  0.00  0.00    +0.124 A 
ATOM     28  F   LIG    1       -5.905  -3.849   8.066  0.00  0.00    -0.205 F 
ATOM     29  C   LIG    1       -4.043  -4.070   6.630  0.00  0.00    +0.048 A 
ATOM     30  H   LIG    1       -0.010  -5.710   7.529  0.00  0.00    +0.165 HD
ATOM     31  C   LIG    1       -2.719  -4.466   6.431  0.00  0.00    +0.005 A 
ENDBRANCH  20  21
ENDBRANCH  19  20
ENDBRANCH   4  19
TORSDOF 7
