REMARK  Name = ZINC06614834
REMARK                            x       y       z     vdW  Elec       q    Type
REMARK                         _______ _______ _______ _____ _____    ______ ____
ROOT
ATOM      1  N   LIG    1        3.490  -0.775  -0.036  0.00  0.00    -0.279 N 
ATOM      2  H   LIG    1        3.458  -1.742   0.034  0.00  0.00    +0.155 HD
ENDROOT
BRANCH   1   7
ATOM      3  C   LIG    1        8.690   0.959  -0.526  0.00  0.00    +0.053 C 
ATOM      4  C   LIG    1        7.208   0.725  -0.384  0.00  0.00    +0.008 A 
ATOM      5  C   LIG    1        6.198   1.621  -0.277  0.00  0.00    +0.124 A 
ATOM      6  N   LIG    1        4.965   1.168  -0.162  0.00  0.00    -0.233 NA
ATOM      7  C   LIG    1        4.711  -0.127  -0.149  0.00  0.00    +0.164 A 
ATOM      8  S   LIG    1        6.300  -0.811  -0.302  0.00  0.00    -0.057 S 
ENDBRANCH   1   7
BRANCH   1   9
ATOM      9  C   LIG    1        2.309  -0.038  -0.023  0.00  0.00    +0.124 A 
ATOM     10  C   LIG    1        1.085  -0.698  -0.019  0.00  0.00    +0.044 A 
ATOM     11  C   LIG    1       -0.081   0.048  -0.005  0.00  0.00    +0.005 A 
ATOM     12  C   LIG    1        0.019   1.433   0.004  0.00  0.00    +0.020 A 
ATOM     13  C   LIG    1        1.267   2.021  -0.000  0.00  0.00    +0.113 A 
ATOM     14  N   LIG    1        2.362   1.285  -0.013  0.00  0.00    -0.240 NA
ENDBRANCH   1   9
TORSDOF 2
