REMARK  Name = ZINC06734987
REMARK                            x       y       z     vdW  Elec       q    Type
REMARK                         _______ _______ _______ _____ _____    ______ ____
ROOT
ATOM      1  C   LIG    1        3.470  -3.019   3.505  0.00  0.00    +0.048 A 
ATOM      2  C   LIG    1        2.798  -3.243   4.697  0.00  0.00    +0.042 A 
ATOM      3  C   LIG    1        3.520  -3.637   5.834  0.00  0.00    +0.072 A 
ATOM      4  N   LIG    1        4.827  -3.801   5.800  0.00  0.00    -0.247 NA
ATOM      5  C   LIG    1        5.532  -3.601   4.685  0.00  0.00    +0.072 A 
ATOM      6  C   LIG    1        6.928  -3.782   4.670  0.00  0.00    +0.028 A 
ATOM      7  C   LIG    1        7.621  -3.589   3.515  0.00  0.00    +0.002 A 
ATOM      8  C   LIG    1        6.974  -3.196   2.346  0.00  0.00    +0.001 A 
ATOM      9  C   LIG    1        5.625  -3.006   2.324  0.00  0.00    +0.011 A 
ATOM     10  C   LIG    1        4.877  -3.208   3.491  0.00  0.00    +0.013 A 
ENDROOT
BRANCH   3  11
ATOM     11  C   LIG    1        2.794  -3.874   7.105  0.00  0.00    +0.000 A 
ATOM     12  C   LIG    1        1.411  -3.712   7.161  0.00  0.00    +0.010 A 
ATOM     13  C   LIG    1        0.740  -3.934   8.347  0.00  0.00    +0.001 A 
ATOM     14  C   LIG    1        1.438  -4.317   9.478  0.00  0.00    +0.000 A 
ATOM     15  C   LIG    1        2.811  -4.479   9.428  0.00  0.00    +0.001 A 
ATOM     16  C   LIG    1        3.491  -4.266   8.246  0.00  0.00    +0.010 A 
ENDBRANCH   3  11
BRANCH   1  19
ATOM     17  N   LIG    1        1.397  -2.550   2.289  0.00  0.00    -0.295 N 
ATOM     18  H   LIG    1        0.904  -2.786   3.091  0.00  0.00    +0.150 HD
ATOM     19  C   LIG    1        2.744  -2.603   2.286  0.00  0.00    +0.246 C 
ATOM     20  O   LIG    1        3.361  -2.308   1.282  0.00  0.00    -0.270 OA
BRANCH  17  21
ATOM     21  C   LIG    1        0.677  -2.138   1.081  0.00  0.00    +0.213 C 
BRANCH  21  22
ATOM     22  C   LIG    1       -0.713  -2.720   1.101  0.00  0.00    -0.016 A 
ATOM     23  C   LIG    1       -1.430  -2.755   2.282  0.00  0.00    +0.006 A 
ATOM     24  C   LIG    1       -2.705  -3.289   2.301  0.00  0.00    +0.000 A 
ATOM     25  C   LIG    1       -3.263  -3.787   1.138  0.00  0.00    +0.000 A 
ATOM     26  C   LIG    1       -2.545  -3.752  -0.043  0.00  0.00    +0.000 A 
ATOM     27  C   LIG    1       -1.272  -3.214  -0.062  0.00  0.00    +0.006 A 
ENDBRANCH  21  22
BRANCH  21  28
ATOM     28  C   LIG    1        0.592  -0.634   1.036  0.00  0.00    +0.332 C 
ATOM     29  O   LIG    1        1.082   0.025   1.922  0.00  0.00    -0.248 OA
BRANCH  28  31
ATOM     30  C   LIG    1       -0.072   1.401   0.034  0.00  0.00    +0.280 C 
ATOM     31  O   LIG    1       -0.029  -0.028   0.012  0.00  0.00    -0.466 OA
ENDBRANCH  28  31
ENDBRANCH  21  28
ENDBRANCH  17  21
ENDBRANCH   1  19
TORSDOF 6
