REMARK  Name = ZINC05974593
REMARK                            x       y       z     vdW  Elec       q    Type
REMARK                         _______ _______ _______ _____ _____    ______ ____
ROOT
ATOM      1  C   LIG    1       -0.013   1.086   0.008  0.00  0.00    -0.002 C 
ATOM      2  C   LIG    1       -0.707   1.585   1.281  0.00  0.00    +0.010 C 
ATOM      3  C   LIG    1       -0.086   0.873   2.482  0.00  0.00    +0.056 C 
ATOM      4  C   LIG    1        1.414   0.985   2.444  0.00  0.00    +0.051 A 
ATOM      5  C   LIG    1        2.102   1.320   1.303  0.00  0.00    +0.014 A 
ATOM      6  C   LIG    1        3.500   1.386   1.360  0.00  0.00    +0.125 A 
ATOM      7  N   LIG    1        4.115   1.129   2.508  0.00  0.00    -0.200 NA
ATOM      8  C   LIG    1        3.416   0.814   3.588  0.00  0.00    +0.214 A 
ATOM      9  N   LIG    1        2.095   0.743   3.561  0.00  0.00    -0.219 NA
ATOM     10  C   LIG    1        1.419   1.619  -0.003  0.00  0.00    +0.044 C 
ENDROOT
BRANCH   6  11
ATOM     11  N   LIG    1        4.232   1.717   0.232  0.00  0.00    -0.343 N 
ATOM     12  H   LIG    1        5.200   1.762   0.277  0.00  0.00    +0.144 HD
ATOM     13  H   LIG    1        3.777   1.904  -0.604  0.00  0.00    +0.144 HD
ENDBRANCH   6  11
BRANCH   8  14
ATOM     14  N   LIG    1        4.082   0.554   4.773  0.00  0.00    -0.327 N 
ATOM     15  H   LIG    1        3.581   0.322   5.570  0.00  0.00    +0.145 HD
ATOM     16  H   LIG    1        5.050   0.603   4.805  0.00  0.00    +0.145 HD
ENDBRANCH   8  14
BRANCH   1  17
ATOM     17  C   LIG    1       -0.761   1.597  -1.225  0.00  0.00    +0.039 C 
BRANCH  17  21
ATOM     18  C   LIG    1        1.001  -0.057  -4.747  0.00  0.00    +0.000 A 
ATOM     19  C   LIG    1       -0.029  -0.724  -4.112  0.00  0.00    +0.000 A 
ATOM     20  C   LIG    1       -0.600  -0.189  -2.972  0.00  0.00    +0.003 A 
ATOM     21  C   LIG    1       -0.139   1.013  -2.467  0.00  0.00    -0.047 A 
ATOM     22  C   LIG    1        0.888   1.683  -3.106  0.00  0.00    +0.003 A 
ATOM     23  C   LIG    1        1.461   1.145  -4.243  0.00  0.00    +0.000 A 
ENDBRANCH  17  21
ENDBRANCH   1  17
TORSDOF 4
