REMARK  Name = ZINC08388791
REMARK                            x       y       z     vdW  Elec       q    Type
REMARK                         _______ _______ _______ _____ _____    ______ ____
ROOT
ATOM      1  C   LIG    1       -2.253   1.777  -2.803  0.00  0.00    +0.244 C 
ATOM      2  N   LIG    1       -1.862   1.207  -1.646  0.00  0.00    -0.313 N 
ATOM      3  H   LIG    1       -1.537   1.761  -0.918  0.00  0.00    +0.149 HD
ATOM      4  O   LIG    1       -2.661   1.083  -3.715  0.00  0.00    -0.270 OA
ENDROOT
BRANCH   1   8
ATOM      5  C   LIG    1       -2.065   5.994  -3.264  0.00  0.00    +0.121 A 
ATOM      6  C   LIG    1       -2.530   5.203  -4.307  0.00  0.00    +0.046 A 
ATOM      7  C   LIG    1       -2.593   3.835  -4.162  0.00  0.00    +0.016 A 
ATOM      8  C   LIG    1       -2.188   3.243  -2.963  0.00  0.00    +0.037 A 
ATOM      9  C   LIG    1       -1.725   4.042  -1.914  0.00  0.00    +0.016 A 
ATOM     10  C   LIG    1       -1.660   5.409  -2.070  0.00  0.00    +0.046 A 
BRANCH   5  11
ATOM     11  O   LIG    1       -2.005   7.342  -3.411  0.00  0.00    -0.492 OA
BRANCH  11  12
ATOM     12  C   LIG    1       -1.516   8.095  -2.299  0.00  0.00    +0.229 C 
BRANCH  12  13
ATOM     13  C   LIG    1       -1.522   9.584  -2.649  0.00  0.00    +0.041 C 
BRANCH  13  15
ATOM     14  C   LIG    1       -1.004  11.880  -1.809  0.00  0.00    +0.004 C 
ATOM     15  C   LIG    1       -0.999  10.390  -1.459  0.00  0.00    -0.000 C 
ENDBRANCH  13  15
ENDBRANCH  12  13
ENDBRANCH  11  12
ENDBRANCH   5  11
ENDBRANCH   1   8
BRANCH   2  16
ATOM     16  C   LIG    1       -1.927  -0.248  -1.487  0.00  0.00    +0.092 C 
BRANCH  16  17
ATOM     17  C   LIG    1       -1.355  -0.638  -0.122  0.00  0.00    -0.050 C 
ATOM     18  C   LIG    1       -2.249  -0.076   0.985  0.00  0.00    -0.010 C 
ATOM     19  C   LIG    1       -3.661  -0.650   0.840  0.00  0.00    -0.001 C 
ATOM     20  C   LIG    1       -3.606  -2.175   0.953  0.00  0.00    -0.000 C 
ATOM     21  C   LIG    1       -2.711  -2.736  -0.154  0.00  0.00    -0.001 C 
ATOM     22  C   LIG    1       -1.300  -2.163  -0.010  0.00  0.00    -0.010 C 
BRANCH  17  23
ATOM     23  N   LIG    1       -0.002  -0.059   0.014  0.00  0.00    +0.381 N 
ATOM     24  H   LIG    1       -0.066   0.963  -0.073  0.00  0.00    -0.082 HD
ATOM     25  C   LIG    1        0.879  -0.576  -1.054  0.00  0.00    -0.096 C 
ATOM     26  C   LIG    1        0.560  -0.394   1.339  0.00  0.00    -0.096 C 
ENDBRANCH  17  23
ENDBRANCH  16  17
ENDBRANCH   2  16
TORSDOF 8
