REMARK  Name = ZINC06527999
REMARK                            x       y       z     vdW  Elec       q    Type
REMARK                         _______ _______ _______ _____ _____    ______ ____
ROOT
ATOM      1  S   LIG    1       -1.512  -0.905   0.012  0.00  0.00    +0.155 S 
ATOM      2  O   LIG    1       -2.493  -0.046   0.577  0.00  0.00    -0.132 OA
ATOM      3  O   LIG    1       -1.218  -2.186   0.553  0.00  0.00    -0.132 OA
ENDROOT
BRANCH   1  10
ATOM      4  C   LIG    1       -0.017   1.378   0.010  0.00  0.00    +0.031 A 
ATOM      5  C   LIG    1        1.171   2.086   0.002  0.00  0.00    +0.017 A 
ATOM      6  C   LIG    1        2.378   1.411  -0.013  0.00  0.00    +0.018 A 
ATOM      7 BR   LIG    1        4.003   2.378  -0.024  0.00  0.00    -0.050 Br
ATOM      8  C   LIG    1        2.396   0.027  -0.021  0.00  0.00    +0.017 A 
ATOM      9  C   LIG    1        1.208  -0.679  -0.013  0.00  0.00    +0.031 A 
ATOM     10  C   LIG    1        0.002  -0.004   0.002  0.00  0.00    +0.127 A 
ENDBRANCH   1  10
BRANCH   1  11
ATOM     11  N   LIG    1       -1.948  -1.147  -1.567  0.00  0.00    +0.061 NA
ATOM     12  C   LIG    1       -3.042  -1.796  -1.849  0.00  0.00    +0.403 C 
BRANCH  12  13
ATOM     13  N   LIG    1       -3.404  -1.997  -3.160  0.00  0.00    -0.288 N 
ATOM     14  H   LIG    1       -4.219  -2.480  -3.370  0.00  0.00    +0.255 HD
ATOM     15  H   LIG    1       -2.845  -1.656  -3.876  0.00  0.00    +0.255 HD
ENDBRANCH  12  13
BRANCH  12  16
ATOM     16  N   LIG    1       -3.836  -2.280  -0.836  0.00  0.00    -0.288 N 
ATOM     17  H   LIG    1       -4.650  -2.762  -1.045  0.00  0.00    +0.255 HD
ATOM     18  H   LIG    1       -3.580  -2.138   0.089  0.00  0.00    +0.255 HD
ENDBRANCH  12  16
ENDBRANCH   1  11
TORSDOF 4
