REMARK  Name = ZINC07909010
REMARK                            x       y       z     vdW  Elec       q    Type
REMARK                         _______ _______ _______ _____ _____    ______ ____
ROOT
ATOM      1  N   LIG    1       -1.372  -0.511   0.012  0.00  0.00    -0.304 N 
ATOM      2  H   LIG    1       -1.810  -0.743  -0.822  0.00  0.00    +0.150 HD
ATOM      3  C   LIG    1       -2.029  -0.655   1.181  0.00  0.00    +0.261 C 
ATOM      4  O   LIG    1       -1.480  -0.364   2.227  0.00  0.00    -0.269 OA
ENDROOT
BRANCH   3   5
ATOM      5  C   LIG    1       -3.408  -1.164   1.191  0.00  0.00    +0.103 A 
ATOM      6  C   LIG    1       -4.172  -1.347   2.300  0.00  0.00    +0.040 A 
ATOM      7  C   LIG    1       -5.428  -1.849   1.880  0.00  0.00    +0.000 A 
ATOM      8  C   LIG    1       -6.593  -2.218   2.564  0.00  0.00    +0.010 A 
ATOM      9  C   LIG    1       -7.672  -2.680   1.867  0.00  0.00    +0.001 A 
ATOM     10  C   LIG    1       -7.626  -2.788   0.483  0.00  0.00    +0.002 A 
ATOM     11  C   LIG    1       -6.492  -2.432  -0.212  0.00  0.00    +0.026 A 
ATOM     12  C   LIG    1       -5.379  -1.957   0.477  0.00  0.00    +0.047 A 
ATOM     13  N   LIG    1       -4.136  -1.527   0.075  0.00  0.00    -0.351 N 
ATOM     14  H   LIG    1       -3.822  -1.488  -0.842  0.00  0.00    +0.166 HD
ENDBRANCH   3   5
BRANCH   1  16
ATOM     15  C   LIG    1       -0.019   1.526   0.010  0.00  0.00    +0.033 C 
ATOM     16  C   LIG    1        0.002  -0.004   0.002  0.00  0.00    +0.100 C 
BRANCH  16  17
ATOM     17  C   LIG    1        0.707  -0.490  -1.238  0.00  0.00    -0.027 A 
ATOM     18  C   LIG    1        0.038  -0.522  -2.447  0.00  0.00    +0.005 A 
ATOM     19  C   LIG    1        0.685  -0.967  -3.584  0.00  0.00    +0.000 A 
ATOM     20  C   LIG    1        2.002  -1.381  -3.513  0.00  0.00    +0.000 A 
ATOM     21  C   LIG    1        2.672  -1.349  -2.304  0.00  0.00    +0.000 A 
ATOM     22  C   LIG    1        2.026  -0.899  -1.167  0.00  0.00    +0.005 A 
ENDBRANCH  16  17
ENDBRANCH   1  16
TORSDOF 3
