REMARK  Name = ZINC06718469
REMARK                            x       y       z     vdW  Elec       q    Type
REMARK                         _______ _______ _______ _____ _____    ______ ____
ROOT
ATOM      1  C   LIG    1       -1.281  -0.739   0.045  0.00  0.00    +0.075 A 
ATOM      2  C   LIG    1       -1.530  -1.923   0.730  0.00  0.00    +0.049 A 
ATOM      3  C   LIG    1       -2.840  -2.324   0.405  0.00  0.00    +0.076 A 
ATOM      4  N   LIG    1       -3.350  -1.447  -0.417  0.00  0.00    -0.177 NA
ATOM      5  N   LIG    1       -2.407  -0.442  -0.659  0.00  0.00    -0.276 N 
ATOM      6  H   LIG    1       -2.533   0.331  -1.230  0.00  0.00    +0.189 HD
ENDROOT
BRANCH   3   7
ATOM      7  C   LIG    1       -3.535  -3.558   0.920  0.00  0.00    +0.043 C 
ATOM      8  C   LIG    1       -4.797  -3.150   1.684  0.00  0.00    +0.029 C 
ATOM      9  C   LIG    1       -5.483  -4.404   2.235  0.00  0.00    +0.108 C 
ATOM     10  N   LIG    1       -5.724  -5.337   1.125  0.00  0.00    -0.300 N 
ATOM     11  C   LIG    1       -6.959  -5.829   0.897  0.00  0.00    +0.241 C 
ATOM     12  O   LIG    1       -7.883  -5.501   1.611  0.00  0.00    -0.273 OA
ATOM     13  C   LIG    1       -4.595  -5.725   0.270  0.00  0.00    +0.108 C 
ATOM     14  C   LIG    1       -3.918  -4.456  -0.259  0.00  0.00    +0.029 C 
BRANCH  11  15
ATOM     15  C   LIG    1       -7.190  -6.785  -0.244  0.00  0.00    +0.251 C 
BRANCH  15  16
ATOM     16  O   LIG    1       -8.568  -7.160  -0.280  0.00  0.00    -0.386 OA
ATOM     17  H   LIG    1       -8.790  -7.776  -0.991  0.00  0.00    +0.210 HD
ENDBRANCH  15  16
ENDBRANCH  11  15
ENDBRANCH   3   7
BRANCH   1  24
ATOM     18  C   LIG    1       -0.082   1.433   0.271  0.00  0.00    +0.011 A 
ATOM     19  C   LIG    1        1.087   2.164   0.303  0.00  0.00    +0.020 A 
ATOM     20  C   LIG    1        2.308   1.530   0.147  0.00  0.00    +0.041 A 
ATOM     21 CL   LIG    1        3.775   2.457   0.189  0.00  0.00    -0.084 Cl
ATOM     22  C   LIG    1        2.364   0.159  -0.043  0.00  0.00    +0.020 A 
ATOM     23  C   LIG    1        1.202  -0.583  -0.077  0.00  0.00    +0.011 A 
ATOM     24  C   LIG    1       -0.032   0.050   0.080  0.00  0.00    +0.001 A 
ENDBRANCH   1  24
BRANCH   2  25
ATOM     25  C   LIG    1       -0.593  -2.631   1.630  0.00  0.00    +0.078 A 
ATOM     26  C   LIG    1        0.099  -1.934   2.627  0.00  0.00    +0.048 A 
ATOM     27  C   LIG    1        0.962  -2.641   3.442  0.00  0.00    +0.114 A 
ATOM     28  N   LIG    1        1.105  -3.945   3.255  0.00  0.00    -0.244 NA
ATOM     29  C   LIG    1        0.439  -4.574   2.307  0.00  0.00    +0.221 A 
ATOM     30  N   LIG    1       -0.398  -3.943   1.509  0.00  0.00    -0.235 NA
ENDBRANCH   2  25
TORSDOF 5
