REMARK  Name = ZINC06718471
REMARK                            x       y       z     vdW  Elec       q    Type
REMARK                         _______ _______ _______ _____ _____    ______ ____
ROOT
ATOM      1  C   LIG    1        1.243   1.512  -0.544  0.00  0.00    +0.060 A 
ATOM      2  C   LIG    1        1.966   0.365  -0.257  0.00  0.00    +0.126 A 
ATOM      3  N   LIG    1        1.108  -0.625   0.031  0.00  0.00    -0.234 N 
ATOM      4  C   LIG    1       -0.185  -0.142  -0.063  0.00  0.00    +0.109 A 
ATOM      5  C   LIG    1       -1.258  -1.029   0.203  0.00  0.00    +0.151 A 
ATOM      6  N   LIG    1       -0.993  -2.282   0.531  0.00  0.00    -0.217 NA
ATOM      7  C   LIG    1        0.258  -2.732   0.617  0.00  0.00    +0.245 A 
ATOM      8  N   LIG    1        1.291  -1.970   0.385  0.00  0.00    -0.155 NA
ATOM      9  C   LIG    1       -0.123   1.186  -0.420  0.00  0.00    -0.008 A 
ATOM     10  C   LIG    1       -1.292   2.112  -0.641  0.00  0.00    +0.047 C 
ENDROOT
BRANCH   1  13
ATOM     11  N   LIG    1        3.134   2.996  -0.992  0.00  0.00    -0.312 N 
ATOM     12  H   LIG    1        3.728   2.252  -0.809  0.00  0.00    +0.149 HD
ATOM     13  C   LIG    1        1.799   2.827  -0.911  0.00  0.00    +0.246 C 
ATOM     14  O   LIG    1        1.053   3.760  -1.140  0.00  0.00    -0.270 OA
BRANCH  11  16
ATOM     15  C   LIG    1        5.214   4.223  -1.377  0.00  0.00    +0.024 C 
ATOM     16  C   LIG    1        3.686   4.303  -1.357  0.00  0.00    +0.101 C 
ENDBRANCH  11  16
ENDBRANCH   1  13
BRANCH   5  17
ATOM     17  N   LIG    1       -2.564  -0.590   0.121  0.00  0.00    -0.297 N 
ATOM     18  H   LIG    1       -2.751   0.349  -0.034  0.00  0.00    +0.154 HD
BRANCH  17  19
ATOM     19  C   LIG    1       -3.617  -1.499   0.260  0.00  0.00    +0.036 A 
ATOM     20  C   LIG    1       -3.451  -2.818  -0.135  0.00  0.00    +0.036 A 
ATOM     21  C   LIG    1       -4.505  -3.721   0.006  0.00  0.00    +0.040 A 
ATOM     22  C   LIG    1       -5.719  -3.290   0.544  0.00  0.00    +0.013 A 
ATOM     23  C   LIG    1       -5.874  -1.976   0.933  0.00  0.00    +0.006 A 
ATOM     24  C   LIG    1       -4.828  -1.082   0.799  0.00  0.00    -0.029 A 
ATOM     25  C   LIG    1       -5.004   0.350   1.233  0.00  0.00    +0.045 C 
BRANCH  21  26
ATOM     26  C   LIG    1       -4.336  -5.129  -0.412  0.00  0.00    +0.267 C 
ATOM     27  N   LIG    1       -5.356  -6.000  -0.274  0.00  0.00    -0.191 N 
ATOM     28  H   LIG    1       -6.200  -5.702   0.099  0.00  0.00    +0.183 HD
ATOM     29  O   LIG    1       -3.277  -5.502  -0.879  0.00  0.00    -0.268 OA
BRANCH  27  30
ATOM     30  O   LIG    1       -5.194  -7.348  -0.674  0.00  0.00    -0.283 OA
ATOM     31  C   LIG    1       -6.354  -8.158  -0.472  0.00  0.00    +0.226 C 
ENDBRANCH  27  30
ENDBRANCH  21  26
ENDBRANCH  17  19
ENDBRANCH   5  17
TORSDOF 6
