REMARK  Name = ZINC07639070
REMARK                            x       y       z     vdW  Elec       q    Type
REMARK                         _______ _______ _______ _____ _____    ______ ____
ROOT
ATOM      1  N   LIG    1       -1.238   2.069   0.019  0.00  0.00    -0.281 N 
ATOM      2  H   LIG    1       -2.071   1.576  -0.048  0.00  0.00    +0.155 HD
ATOM      3  C   LIG    1       -1.257   3.412   0.128  0.00  0.00    +0.250 C 
ATOM      4  O   LIG    1       -0.213   4.037   0.127  0.00  0.00    -0.270 OA
ENDROOT
BRANCH   3   5
ATOM      5  C   LIG    1       -2.542   4.124   0.249  0.00  0.00    +0.053 A 
ATOM      6  C   LIG    1       -3.760   3.401   0.252  0.00  0.00    +0.020 A 
ATOM      7  C   LIG    1       -4.931   4.084   0.365  0.00  0.00    +0.071 A 
ATOM      8  C   LIG    1       -4.908   5.487   0.477  0.00  0.00    +0.249 A 
ATOM      9  N   LIG    1       -3.739   6.153   0.473  0.00  0.00    -0.328 N 
ATOM     10  H   LIG    1       -3.740   7.120   0.552  0.00  0.00    +0.168 HD
ATOM     11  O   LIG    1       -5.955   6.103   0.579  0.00  0.00    -0.268 OA
ATOM     12  C   LIG    1       -2.567   5.498   0.367  0.00  0.00    +0.099 A 
ENDBRANCH   3   5
BRANCH   1  19
ATOM     13  C   LIG    1        1.090   1.954  -0.614  0.00  0.00    +0.026 A 
ATOM     14  C   LIG    1        2.293   1.275  -0.635  0.00  0.00    +0.040 A 
ATOM     15  C   LIG    1        2.396   0.028  -0.041  0.00  0.00    +0.124 A 
ATOM     16  F   LIG    1        3.573  -0.634  -0.063  0.00  0.00    -0.205 F 
ATOM     17  C   LIG    1        1.293  -0.541   0.574  0.00  0.00    +0.040 A 
ATOM     18  C   LIG    1        0.089   0.135   0.597  0.00  0.00    +0.026 A 
ATOM     19  C   LIG    1       -0.017   1.385   0.002  0.00  0.00    +0.034 A 
ENDBRANCH   1  19
TORSDOF 2
