REMARK  Name = ZINC05966264
REMARK                            x       y       z     vdW  Elec       q    Type
REMARK                         _______ _______ _______ _____ _____    ______ ____
ROOT
ATOM      1  C   LIG    1       -1.238   3.143   0.030  0.00  0.00    -0.019 A 
ATOM      2  C   LIG    1       -1.217   1.748   0.017  0.00  0.00    +0.012 A 
ATOM      3  C   LIG    1       -0.013   1.076   0.008  0.00  0.00    +0.050 A 
ATOM      4  C   LIG    1        1.180   1.784   0.000  0.00  0.00    +0.158 A 
ATOM      5  C   LIG    1        1.166   3.177   0.007  0.00  0.00    +0.159 A 
ATOM      6  C   LIG    1       -0.038   3.856   0.022  0.00  0.00    +0.057 A 
ENDROOT
BRANCH   1  12
ATOM      7  C   LIG    1       -6.302   5.723  -0.065  0.00  0.00    -0.096 C 
ATOM      8  N   LIG    1       -5.095   4.867  -0.089  0.00  0.00    +0.380 N 
ATOM      9  H   LIG    1       -5.367   3.913  -0.352  0.00  0.00    -0.082 HD
ATOM     10  C   LIG    1       -4.130   5.383  -1.079  0.00  0.00    -0.051 C 
ATOM     11  C   LIG    1       -2.848   4.607  -0.992  0.00  0.00    -0.041 C 
ATOM     12  C   LIG    1       -2.528   3.864   0.046  0.00  0.00    -0.048 C 
ATOM     13  C   LIG    1       -3.418   3.724   1.249  0.00  0.00    +0.017 C 
ATOM     14  C   LIG    1       -4.467   4.839   1.248  0.00  0.00    -0.074 C 
ENDBRANCH   1  12
BRANCH   4  15
ATOM     15  O   LIG    1        2.365   1.117  -0.014  0.00  0.00    -0.503 OA
ATOM     16  H   LIG    1        2.699   0.929  -0.902  0.00  0.00    +0.292 HD
ENDBRANCH   4  15
BRANCH   5  17
ATOM     17  O   LIG    1        2.337   3.869  -0.000  0.00  0.00    -0.503 OA
ATOM     18  H   LIG    1        2.667   4.073  -0.886  0.00  0.00    +0.292 HD
ENDBRANCH   5  17
TORSDOF 3
