REMARK  Name = ZINC06070257
REMARK                            x       y       z     vdW  Elec       q    Type
REMARK                         _______ _______ _______ _____ _____    ______ ____
ROOT
ATOM      1  C   LIG    1       -0.034   1.344   0.740  0.00  0.00    +0.044 C 
ATOM      2  C   LIG    1       -0.028  -0.157   0.600  0.00  0.00    -0.046 A 
ATOM      3  C   LIG    1       -0.041  -0.731  -0.659  0.00  0.00    +0.014 A 
ATOM      4  C   LIG    1       -0.012  -2.098  -0.795  0.00  0.00    +0.036 A 
ATOM      5  C   LIG    1        0.085  -2.909   0.350  0.00  0.00    +0.176 A 
ATOM      6  O   LIG    1        0.360  -4.229   0.160  0.00  0.00    -0.451 OA
ATOM      7  C   LIG    1       -0.559  -4.976  -0.503  0.00  0.00    +0.146 A 
ATOM      8  C   LIG    1       -1.724  -5.410   0.102  0.00  0.00    +0.048 A 
ATOM      9  C   LIG    1       -2.631  -6.169  -0.616  0.00  0.00    +0.014 A 
ATOM     10  C   LIG    1       -2.391  -6.503  -1.936  0.00  0.00    +0.035 A 
ATOM     11  C   LIG    1       -1.227  -6.077  -2.565  0.00  0.00    +0.144 A 
ATOM     12  C   LIG    1       -0.310  -5.312  -1.846  0.00  0.00    +0.143 A 
ATOM     13  C   LIG    1        0.950  -4.816  -2.449  0.00  0.00    +0.347 C 
ATOM     14  O   LIG    1        1.078  -3.452  -2.460  0.00  0.00    -0.456 OA
ATOM     15  O   LIG    1        1.800  -5.559  -2.898  0.00  0.00    -0.245 OA
ATOM     16  C   LIG    1        0.041  -2.335   1.606  0.00  0.00    +0.160 A 
ATOM     17  C   LIG    1       -0.150  -2.775  -2.136  0.00  0.00    +0.271 C 
ATOM     18  C   LIG    1       -0.005  -0.953   1.730  0.00  0.00    +0.052 A 
ENDROOT
BRANCH  11  19
ATOM     19  O   LIG    1       -0.987  -6.402  -3.860  0.00  0.00    -0.494 OA
ATOM     20  C   LIG    1       -0.302  -7.632  -4.103  0.00  0.00    +0.277 C 
ENDBRANCH  11  19
BRANCH  16  21
ATOM     21  O   LIG    1        0.049  -3.120   2.717  0.00  0.00    -0.503 OA
ATOM     22  H   LIG    1        0.933  -3.315   3.054  0.00  0.00    +0.292 HD
ENDBRANCH  16  21
BRANCH  10  23
ATOM     23  C   LIG    1       -3.395  -7.330  -2.696  0.00  0.00    +0.210 C 
BRANCH  23  24
ATOM     24  O   LIG    1       -4.151  -8.123  -1.778  0.00  0.00    -0.457 OA
BRANCH  24  25
ATOM     25  C   LIG    1       -4.610  -9.302  -2.226  0.00  0.00    +0.305 C 
ATOM     26  C   LIG    1       -5.415 -10.193  -1.315  0.00  0.00    +0.136 C 
ATOM     27  O   LIG    1       -4.378  -9.649  -3.360  0.00  0.00    -0.251 OA
ENDBRANCH  24  25
ENDBRANCH  23  24
BRANCH  23  28
ATOM     28  C   LIG    1       -4.338  -6.406  -3.468  0.00  0.00    +0.052 C 
BRANCH  28  29
ATOM     29  C   LIG    1       -5.245  -7.242  -4.372  0.00  0.00    -0.013 C 
ATOM     30  C   LIG    1       -4.399  -7.939  -5.439  0.00  0.00    +0.007 C 
ATOM     31  C   LIG    1       -6.271  -6.331  -5.050  0.00  0.00    +0.007 C 
ENDBRANCH  28  29
ENDBRANCH  23  28
ENDBRANCH  10  23
TORSDOF 7
