REMARK  Name = ZINC08448503
REMARK                            x       y       z     vdW  Elec       q    Type
REMARK                         _______ _______ _______ _____ _____    ______ ____
ROOT
ATOM      1  C   LIG    1       -1.235   3.729   0.033  0.00  0.00    +0.079 A 
ATOM      2  C   LIG    1       -0.068   4.499   0.026  0.00  0.00    +0.042 A 
ATOM      3  C   LIG    1        1.151   3.876   0.011  0.00  0.00    +0.077 A 
ATOM      4  C   LIG    1        1.190   2.474   0.004  0.00  0.00    +0.095 A 
ATOM      5  C   LIG    1       -0.022   1.758   0.012  0.00  0.00    +0.116 A 
ATOM      6  N   LIG    1       -1.178   2.400   0.021  0.00  0.00    -0.239 NA
ENDROOT
BRANCH   1   9
ATOM      7  C   LIG    1       -4.894   4.680   0.072  0.00  0.00    +0.008 A 
ATOM      8  C   LIG    1       -3.802   3.845   0.058  0.00  0.00    +0.017 A 
ATOM      9  C   LIG    1       -2.548   4.400   0.049  0.00  0.00    +0.038 A 
ATOM     10  S   LIG    1       -2.918   6.146   0.069  0.00  0.00    -0.095 S 
ATOM     11  C   LIG    1       -4.700   6.026   0.078  0.00  0.00    +0.046 A 
ENDBRANCH   1   9
BRANCH   3  12
ATOM     12  C   LIG    1        2.426   4.681   0.003  0.00  0.00    +0.419 C 
ATOM     13  F   LIG    1        3.161   4.378  -1.148  0.00  0.00    -0.166 F 
ATOM     14  F   LIG    1        3.183   4.366   1.136  0.00  0.00    -0.166 F 
ATOM     15  F   LIG    1        2.116   6.045   0.013  0.00  0.00    -0.166 F 
ENDBRANCH   3  12
BRANCH   4  16
ATOM     16  C   LIG    1        2.443   1.782  -0.011  0.00  0.00    +0.102 C 
ATOM     17  N   LIG    1        3.438   1.233  -0.022  0.00  0.00    -0.191 NA
ENDBRANCH   4  16
BRANCH   5  18
ATOM     18  S   LIG    1        0.002  -0.004   0.002  0.00  0.00    -0.100 S 
BRANCH  18  19
ATOM     19  C   LIG    1       -1.776  -0.343   0.017  0.00  0.00    +0.111 C 
BRANCH  19  20
ATOM     20  C   LIG    1       -2.004  -1.832   0.011  0.00  0.00    -0.037 A 
ATOM     21  C   LIG    1       -2.125  -2.506  -1.191  0.00  0.00    +0.005 A 
ATOM     22  C   LIG    1       -2.329  -3.870  -1.204  0.00  0.00    +0.015 A 
ATOM     23  C   LIG    1       -2.423  -4.570   0.001  0.00  0.00    +0.059 A 
ATOM     24  C   LIG    1       -2.305  -3.883   1.211  0.00  0.00    +0.015 A 
ATOM     25  C   LIG    1       -2.096  -2.519   1.209  0.00  0.00    +0.005 A 
BRANCH  23  26
ATOM     26  C   LIG    1       -2.647  -6.030  -0.005  0.00  0.00    +0.337 C 
ATOM     27  O   LIG    1       -2.728  -6.636   1.044  0.00  0.00    -0.245 OA
BRANCH  26  28
ATOM     28  O   LIG    1       -2.760  -6.689  -1.174  0.00  0.00    -0.477 OA
ATOM     29  H   LIG    1       -2.697  -6.222  -1.984  0.00  0.00    +0.295 HD
ENDBRANCH  26  28
ENDBRANCH  23  26
ENDBRANCH  19  20
ENDBRANCH  18  19
ENDBRANCH   5  18
TORSDOF 8
