REMARK  Name = ZINC08438335
REMARK                            x       y       z     vdW  Elec       q    Type
REMARK                         _______ _______ _______ _____ _____    ______ ____
ROOT
ATOM      1  C   LIG    1        3.053  -1.086  -6.088  0.00  0.00    +0.046 A 
ATOM      2  C   LIG    1        3.592  -1.458  -4.859  0.00  0.00    +0.026 A 
ATOM      3  C   LIG    1        3.024  -1.056  -3.679  0.00  0.00    +0.031 A 
ATOM      4  C   LIG    1        1.865  -0.246  -3.672  0.00  0.00    +0.080 A 
ATOM      5  C   LIG    1        1.343   0.113  -4.935  0.00  0.00    +0.042 A 
ATOM      6  S   LIG    1       -0.072   1.094  -4.497  0.00  0.00    -0.061 S 
ATOM      7  C   LIG    1        0.115   0.979  -2.723  0.00  0.00    +0.136 A 
ATOM      8  N   LIG    1        1.188   0.230  -2.603  0.00  0.00    -0.233 NA
ATOM      9  C   LIG    1        1.915  -0.291  -6.115  0.00  0.00    +0.041 A 
ENDROOT
BRANCH   1  16
ATOM     10  C   LIG    1        6.091  -3.230 -10.826  0.00  0.00    +0.001 A 
ATOM     11  C   LIG    1        5.124  -2.558 -11.549  0.00  0.00    +0.001 A 
ATOM     12  C   LIG    1        4.122  -1.854 -10.898  0.00  0.00    +0.014 A 
ATOM     13  C   LIG    1        4.091  -1.826  -9.513  0.00  0.00    +0.050 A 
ATOM     14  C   LIG    1        5.077  -2.512  -8.776  0.00  0.00    +0.050 A 
ATOM     15  C   LIG    1        4.753  -2.279  -7.353  0.00  0.00    +0.258 C 
ATOM     16  N   LIG    1        3.652  -1.510  -7.284  0.00  0.00    -0.202 N 
ATOM     17  O   LIG    1        5.377  -2.711  -6.404  0.00  0.00    -0.269 OA
ATOM     18  C   LIG    1        3.198  -1.204  -8.513  0.00  0.00    +0.258 C 
ATOM     19  O   LIG    1        2.219  -0.528  -8.759  0.00  0.00    -0.269 OA
ATOM     20  C   LIG    1        6.072  -3.212  -9.440  0.00  0.00    +0.014 A 
ENDBRANCH   1  16
BRANCH   7  21
ATOM     21  S   LIG    1       -0.889   1.683  -1.458  0.00  0.00    -0.089 S 
BRANCH  21  22
ATOM     22  C   LIG    1       -0.016   1.080   0.008  0.00  0.00    +0.172 C 
BRANCH  22  23
ATOM     23  C   LIG    1       -0.717   1.573   1.248  0.00  0.00    +0.227 C 
ATOM     24  N   LIG    1       -0.242   1.246   2.466  0.00  0.00    -0.285 N 
ATOM     25  H   LIG    1        0.511   0.639   2.546  0.00  0.00    +0.155 HD
ATOM     26  O   LIG    1       -1.709   2.265   1.150  0.00  0.00    -0.275 OA
BRANCH  24  27
ATOM     27  C   LIG    1       -0.833   1.782   3.615  0.00  0.00    +0.035 A 
ATOM     28  C   LIG    1       -0.052   2.086   4.723  0.00  0.00    +0.023 A 
ATOM     29  C   LIG    1       -0.638   2.620   5.854  0.00  0.00    +0.003 A 
ATOM     30  C   LIG    1       -2.002   2.842   5.889  0.00  0.00    +0.020 A 
ATOM     31  C   LIG    1       -2.784   2.535   4.789  0.00  0.00    +0.043 A 
ATOM     32 CL   LIG    1       -4.497   2.816   4.838  0.00  0.00    -0.083 Cl
ATOM     33  C   LIG    1       -2.203   2.006   3.652  0.00  0.00    +0.043 A 
ENDBRANCH  24  27
ENDBRANCH  22  23
ENDBRANCH  21  22
ENDBRANCH   7  21
TORSDOF 5
