REMARK  Name = ZINC07992852
REMARK                            x       y       z     vdW  Elec       q    Type
REMARK                         _______ _______ _______ _____ _____    ______ ____
ROOT
ATOM      1  N   LIG    1        0.713   0.446   2.326  0.00  0.00    -0.285 N 
ATOM      2  C   LIG    1        1.677   1.370   2.603  0.00  0.00    +0.203 A 
ATOM      3  N   LIG    1        1.323   2.087   3.630  0.00  0.00    -0.231 NA
ATOM      4  C   LIG    1        0.113   1.671   4.075  0.00  0.00    +0.148 A 
ATOM      5  C   LIG    1       -0.742   2.060   5.120  0.00  0.00    +0.151 A 
ATOM      6  N   LIG    1       -1.897   1.420   5.265  0.00  0.00    -0.200 NA
ATOM      7  C   LIG    1       -2.238   0.432   4.456  0.00  0.00    +0.226 A 
ATOM      8 CL   LIG    1       -3.759  -0.368   4.707  0.00  0.00    -0.041 Cl
ATOM      9  N   LIG    1       -1.466   0.031   3.466  0.00  0.00    -0.198 NA
ATOM     10  C   LIG    1       -0.295   0.617   3.241  0.00  0.00    +0.169 A 
ENDROOT
BRANCH   1  16
ATOM     11  C   LIG    1       -0.019   1.526   0.010  0.00  0.00    +0.049 C 
ATOM     12  C   LIG    1        0.002  -0.004   0.002  0.00  0.00    +0.136 C 
ATOM     13  C   LIG    1        0.836  -0.528  -1.189  0.00  0.00    +0.181 C 
ATOM     14  C   LIG    1        1.983  -1.320  -0.525  0.00  0.00    +0.178 C 
ATOM     15  O   LIG    1        2.102  -0.757   0.800  0.00  0.00    -0.345 OA
ATOM     16  C   LIG    1        0.745  -0.542   1.245  0.00  0.00    +0.256 C 
BRANCH  12  17
ATOM     17  O   LIG    1       -1.329  -0.521  -0.049  0.00  0.00    -0.382 OA
ATOM     18  H   LIG    1       -1.831  -0.239  -0.825  0.00  0.00    +0.210 HD
ENDBRANCH  12  17
BRANCH  13  19
ATOM     19  O   LIG    1        0.045  -1.384  -2.015  0.00  0.00    -0.386 OA
ATOM     20  H   LIG    1        0.519  -1.742  -2.779  0.00  0.00    +0.210 HD
ENDBRANCH  13  19
BRANCH  14  21
ATOM     21  C   LIG    1        3.284  -1.129  -1.306  0.00  0.00    +0.190 C 
BRANCH  21  22
ATOM     22  O   LIG    1        4.303  -1.959  -0.745  0.00  0.00    -0.392 OA
ATOM     23  H   LIG    1        5.158  -1.889  -1.192  0.00  0.00    +0.210 HD
ENDBRANCH  21  22
ENDBRANCH  14  21
ENDBRANCH   1  16
BRANCH   5  24
ATOM     24  N   LIG    1       -0.395   3.095   5.971  0.00  0.00    -0.324 N 
ATOM     25  H   LIG    1        0.448   3.561   5.849  0.00  0.00    +0.148 HD
BRANCH  24  26
ATOM     26  C   LIG    1       -1.299   3.487   7.055  0.00  0.00    +0.072 C 
ATOM     27  C   LIG    1       -2.311   4.534   6.546  0.00  0.00    +0.022 C 
ATOM     28  C   LIG    1       -2.490   5.501   7.743  0.00  0.00    +0.002 C 
ATOM     29  C   LIG    1       -1.059   5.590   8.329  0.00  0.00    +0.002 C 
ATOM     30  C   LIG    1       -0.503   4.158   8.188  0.00  0.00    +0.022 C 
ENDBRANCH  24  26
ENDBRANCH   5  24
TORSDOF 7
