REMARK  Name = ZINC06116555
REMARK                            x       y       z     vdW  Elec       q    Type
REMARK                         _______ _______ _______ _____ _____    ______ ____
ROOT
ATOM      1  C   LIG    1        0.726  -0.497  -1.253  0.00  0.00    -0.039 C 
ATOM      2  N   LIG    1        0.025  -0.009  -2.455  0.00  0.00    +0.386 N 
ATOM      3  H   LIG    1       -0.013   1.017  -2.432  0.00  0.00    -0.085 HD
ATOM      4  H   LIG    1        0.535  -0.314  -3.292  0.00  0.00    -0.085 HD
ATOM      5  C   LIG    1       -1.350  -0.544  -2.502  0.00  0.00    -0.081 C 
ATOM      6  C   LIG    1       -2.136  -0.056  -1.284  0.00  0.00    -0.019 C 
ATOM      7  C   LIG    1       -1.436  -0.530   0.000  0.00  0.00    +0.001 C 
ATOM      8  C   LIG    1        2.160   0.034  -1.258  0.00  0.00    -0.008 C 
ATOM      9  C   LIG    1        2.139   1.564  -1.250  0.00  0.00    -0.001 C 
ATOM     10  C   LIG    1        1.416   2.056  -0.000  0.00  0.00    +0.000 C 
ATOM     11  C   LIG    1       -0.019   1.526   0.010  0.00  0.00    +0.002 C 
ATOM     12  C   LIG    1        0.002  -0.004   0.002  0.00  0.00    -0.018 C 
ENDROOT
BRANCH   1  16
ATOM     13  C   LIG    1        0.792  -4.768  -1.272  0.00  0.00    +0.000 A 
ATOM     14  C   LIG    1        0.775  -4.072  -2.466  0.00  0.00    +0.000 A 
ATOM     15  C   LIG    1        0.754  -2.690  -2.460  0.00  0.00    +0.002 A 
ATOM     16  C   LIG    1        0.749  -2.004  -1.260  0.00  0.00    -0.058 A 
ATOM     17  C   LIG    1        0.770  -2.700  -0.066  0.00  0.00    +0.002 A 
ATOM     18  C   LIG    1        0.787  -4.082  -0.071  0.00  0.00    +0.000 A 
ENDBRANCH   1  16
TORSDOF 1
