REMARK  Name = ZINC06848170
REMARK                            x       y       z     vdW  Elec       q    Type
REMARK                         _______ _______ _______ _____ _____    ______ ____
ROOT
ATOM      1  C   LIG    1        4.898  -2.639  -0.071  0.00  0.00    +0.263 C 
ATOM      2  N   LIG    1        5.143  -3.925   0.251  0.00  0.00    -0.262 N 
ATOM      3  H   LIG    1        4.479  -4.437   0.740  0.00  0.00    +0.157 HD
ATOM      4  O   LIG    1        5.727  -1.999  -0.682  0.00  0.00    -0.271 OA
ENDROOT
BRANCH   1  12
ATOM      5  C   LIG    1       -0.017   1.378   0.010  0.00  0.00    +0.004 A 
ATOM      6  C   LIG    1        1.170   2.088   0.002  0.00  0.00    +0.004 A 
ATOM      7  C   LIG    1        2.378   1.418  -0.014  0.00  0.00    +0.049 A 
ATOM      8  C   LIG    1        2.404   0.031  -0.023  0.00  0.00    +0.163 A 
ATOM      9  C   LIG    1        1.212  -0.683  -0.013  0.00  0.00    +0.162 A 
ATOM     10  O   LIG    1        1.214  -2.044  -0.013  0.00  0.00    -0.484 OA
ATOM     11  C   LIG    1        2.434  -2.685  -0.404  0.00  0.00    +0.283 C 
ATOM     12  C   LIG    1        3.594  -1.997   0.328  0.00  0.00    +0.296 C 
ATOM     13  O   LIG    1        3.602  -0.615  -0.043  0.00  0.00    -0.473 OA
ATOM     14  C   LIG    1        0.002  -0.004   0.002  0.00  0.00    +0.049 A 
ENDBRANCH   1  12
BRANCH   2  15
ATOM     15  C   LIG    1        6.345  -4.517  -0.117  0.00  0.00    +0.165 A 
ATOM     16  N   LIG    1        6.768  -5.748   0.096  0.00  0.00    -0.225 NA
ATOM     17  C   LIG    1        7.957  -6.150  -0.330  0.00  0.00    +0.080 A 
ATOM     18  C   LIG    1        8.761  -5.271  -1.002  0.00  0.00    +0.076 A 
ATOM     19  S   LIG    1        7.724  -3.814  -1.010  0.00  0.00    -0.060 S 
BRANCH  17  20
ATOM     20  C   LIG    1        8.411  -7.538  -0.079  0.00  0.00    +0.004 A 
ATOM     21  C   LIG    1        9.666  -7.974  -0.517  0.00  0.00    +0.030 A 
ATOM     22  C   LIG    1       10.050  -9.274  -0.262  0.00  0.00    +0.111 A 
ATOM     23  N   LIG    1        9.251 -10.101   0.385  0.00  0.00    -0.263 NA
ATOM     24  C   LIG    1        8.059  -9.731   0.815  0.00  0.00    +0.111 A 
ATOM     25  C   LIG    1        7.600  -8.447   0.608  0.00  0.00    +0.030 A 
ENDBRANCH  17  20
ENDBRANCH   2  15
TORSDOF 3
