REMARK  Name = ZINC06484603
REMARK                            x       y       z     vdW  Elec       q    Type
REMARK                         _______ _______ _______ _____ _____    ______ ____
ROOT
ATOM      1  C   LIG    1       -5.970   1.236   3.932  0.00  0.00    +0.181 A 
ATOM      2  C   LIG    1       -6.594   0.311   3.150  0.00  0.00    +0.211 A 
ATOM      3  C   LIG    1       -5.947  -0.164   1.979  0.00  0.00    +0.238 A 
ATOM      4  C   LIG    1       -4.615   0.381   1.673  0.00  0.00    +0.109 A 
ATOM      5  C   LIG    1       -3.904  -0.032   0.539  0.00  0.00    +0.135 A 
ATOM      6  C   LIG    1       -2.655   0.504   0.286  0.00  0.00    +0.092 A 
ATOM      7  C   LIG    1       -2.110   1.445   1.153  0.00  0.00    +0.127 A 
ATOM      8  C   LIG    1       -2.805   1.854   2.280  0.00  0.00    +0.092 A 
ATOM      9  C   LIG    1       -4.062   1.332   2.548  0.00  0.00    +0.147 A 
ATOM     10  O   LIG    1       -6.476  -0.992   1.254  0.00  0.00    -0.283 OA
ATOM     11  O   LIG    1       -4.753   1.724   3.639  0.00  0.00    -0.451 OA
ENDROOT
BRANCH   1  15
ATOM     12  C   LIG    1       -7.940   2.627   7.430  0.00  0.00    +0.161 A 
ATOM     13  C   LIG    1       -6.617   2.214   7.497  0.00  0.00    +0.050 A 
ATOM     14  C   LIG    1       -5.974   1.762   6.364  0.00  0.00    +0.015 A 
ATOM     15  C   LIG    1       -6.656   1.718   5.145  0.00  0.00    +0.025 A 
ATOM     16  C   LIG    1       -7.987   2.139   5.077  0.00  0.00    +0.060 A 
ATOM     17  C   LIG    1       -8.626   2.586   6.218  0.00  0.00    +0.159 A 
BRANCH  12  19
ATOM     18  C   LIG    1       -7.806   3.088   9.758  0.00  0.00    +0.277 C 
ATOM     19  O   LIG    1       -8.568   3.072   8.550  0.00  0.00    -0.491 OA
ENDBRANCH  12  19
BRANCH  17  20
ATOM     20  O   LIG    1       -9.923   2.991   6.156  0.00  0.00    -0.503 OA
ATOM     21  H   LIG    1      -10.464   2.959   5.199  0.00  0.00    +0.292 HD
ENDBRANCH  17  20
ENDBRANCH   1  15
BRANCH   2  22
ATOM     22  O   LIG    1       -7.827  -0.154   3.489  0.00  0.00    -0.488 OA
ATOM     23  C   LIG    1       -7.879  -1.375   4.230  0.00  0.00    +0.277 C 
ENDBRANCH   2  22
BRANCH   5  24
ATOM     24  O   LIG    1       -4.438  -0.950  -0.306  0.00  0.00    -0.506 OA
ATOM     25  H   LIG    1       -3.876  -1.271  -1.196  0.00  0.00    +0.292 HD
ENDBRANCH   5  24
BRANCH   7  26
ATOM     26  O   LIG    1       -0.882   1.964   0.895  0.00  0.00    -0.495 OA
ATOM     27  C   LIG    1       -0.214   1.498  -0.279  0.00  0.00    +0.277 C 
ENDBRANCH   7  26
TORSDOF 6
