REMARK  Name = ZINC06718826
REMARK                            x       y       z     vdW  Elec       q    Type
REMARK                         _______ _______ _______ _____ _____    ______ ____
ROOT
ATOM      1  C   LIG    1       11.018   5.763  -0.986  0.00  0.00    +0.145 A 
ATOM      2  C   LIG    1        9.979   4.894  -1.343  0.00  0.00    +0.073 A 
ATOM      3  C   LIG    1        8.801   5.570  -1.198  0.00  0.00    +0.068 A 
ATOM      4  N   LIG    1        9.101   6.823  -0.753  0.00  0.00    -0.275 N 
ATOM      5  H   LIG    1        8.444   7.549  -0.550  0.00  0.00    +0.189 HD
ATOM      6  N   LIG    1       10.493   6.913  -0.630  0.00  0.00    -0.158 NA
ENDROOT
BRANCH   3   7
ATOM      7  C   LIG    1        7.448   5.038  -1.469  0.00  0.00    -0.000 A 
ATOM      8  C   LIG    1        6.327   5.846  -1.269  0.00  0.00    +0.010 A 
ATOM      9  C   LIG    1        5.067   5.350  -1.520  0.00  0.00    +0.009 A 
ATOM     10  C   LIG    1        4.911   4.040  -1.974  0.00  0.00    -0.014 A 
ATOM     11  C   LIG    1        6.030   3.230  -2.168  0.00  0.00    +0.009 A 
ATOM     12  C   LIG    1        7.291   3.727  -1.923  0.00  0.00    +0.010 A 
BRANCH  10  13
ATOM     13  C   LIG    1        3.555   3.506  -2.244  0.00  0.00    +0.024 A 
ATOM     14  C   LIG    1        2.548   3.639  -1.289  0.00  0.00    +0.015 A 
ATOM     15  C   LIG    1        1.286   3.148  -1.545  0.00  0.00    +0.046 A 
ATOM     16  C   LIG    1        1.016   2.509  -2.750  0.00  0.00    +0.120 A 
ATOM     17  C   LIG    1        2.012   2.373  -3.705  0.00  0.00    +0.091 A 
ATOM     18  C   LIG    1        3.281   2.869  -3.459  0.00  0.00    +0.128 A 
BRANCH  16  19
ATOM     19  O   LIG    1       -0.228   2.022  -2.994  0.00  0.00    -0.507 OA
ATOM     20  H   LIG    1       -0.355   1.107  -2.711  0.00  0.00    +0.292 HD
ENDBRANCH  16  19
BRANCH  18  21
ATOM     21  O   LIG    1        4.257   2.737  -4.394  0.00  0.00    -0.506 OA
ATOM     22  H   LIG    1        4.306   3.473  -5.019  0.00  0.00    +0.292 HD
ENDBRANCH  18  21
ENDBRANCH  10  13
ENDBRANCH   3   7
BRANCH   1  23
ATOM     23  N   LIG    1       12.384   5.456  -1.000  0.00  0.00    -0.298 N 
ATOM     24  H   LIG    1       12.676   4.554  -1.206  0.00  0.00    +0.154 HD
BRANCH  23  27
ATOM     25  C   LIG    1       15.501   7.401  -1.048  0.00  0.00    +0.003 A 
ATOM     26  C   LIG    1       14.572   6.419  -1.330  0.00  0.00    +0.023 A 
ATOM     27  C   LIG    1       13.326   6.448  -0.718  0.00  0.00    +0.032 A 
ATOM     28  C   LIG    1       13.016   7.470   0.172  0.00  0.00    +0.023 A 
ATOM     29  C   LIG    1       13.951   8.446   0.453  0.00  0.00    +0.003 A 
ATOM     30  C   LIG    1       15.192   8.413  -0.158  0.00  0.00    -0.064 A 
BRANCH  30  31
ATOM     31  C   LIG    1       16.208   9.483   0.146  0.00  0.00    -0.046 C 
BRANCH  31  32
ATOM     32  N   LIG    1       16.037  10.598  -0.806  0.00  0.00    +0.384 N 
ATOM     33  H   LIG    1       16.173  10.250  -1.762  0.00  0.00    -0.085 HD
ATOM     34  H   LIG    1       15.089  10.980  -0.712  0.00  0.00    -0.085 HD
BRANCH  32  35
ATOM     35  C   LIG    1       17.020  11.662  -0.530  0.00  0.00    -0.072 C 
ATOM     36  C   LIG    1       16.517  13.106  -0.560  0.00  0.00    -0.017 C 
ATOM     37  C   LIG    1       17.400  12.581  -1.694  0.00  0.00    -0.017 C 
ENDBRANCH  32  35
ENDBRANCH  31  32
ENDBRANCH  30  31
ENDBRANCH  23  27
ENDBRANCH   1  23
TORSDOF 9
