REMARK  Name = ZINC06400013
REMARK                            x       y       z     vdW  Elec       q    Type
REMARK                         _______ _______ _______ _____ _____    ______ ____
ROOT
ATOM      1  N   LIG    1        3.586   2.125  -0.022  0.00  0.00    -0.298 N 
ATOM      2  C   LIG    1        4.650   1.926   0.807  0.00  0.00    +0.205 A 
ATOM      3  N   LIG    1        5.601   2.767   0.522  0.00  0.00    -0.234 NA
ATOM      4  C   LIG    1        5.215   3.562  -0.507  0.00  0.00    +0.107 A 
ATOM      5  C   LIG    1        5.811   4.609  -1.210  0.00  0.00    +0.140 A 
ATOM      6  N   LIG    1        5.170   5.192  -2.201  0.00  0.00    -0.261 NA
ATOM      7  C   LIG    1        3.950   4.833  -2.564  0.00  0.00    +0.113 A 
ATOM      8  C   LIG    1        3.284   3.812  -1.921  0.00  0.00    +0.048 A 
ATOM      9  C   LIG    1        3.917   3.155  -0.873  0.00  0.00    +0.076 A 
ENDROOT
BRANCH   1  13
ATOM     10  C   LIG    1        0.002  -0.004   0.002  0.00  0.00    +0.000 A 
ATOM     11  C   LIG    1       -0.017   1.379   0.010  0.00  0.00    +0.002 A 
ATOM     12  C   LIG    1        1.169   2.087   0.002  0.00  0.00    +0.026 A 
ATOM     13  C   LIG    1        2.381   1.409  -0.014  0.00  0.00    +0.048 A 
ATOM     14  C   LIG    1        2.396   0.021  -0.021  0.00  0.00    +0.026 A 
ATOM     15  C   LIG    1        1.207  -0.682  -0.013  0.00  0.00    +0.002 A 
ENDBRANCH   1  13
TORSDOF 1
