REMARK  Name = ZINC06382755
REMARK                            x       y       z     vdW  Elec       q    Type
REMARK                         _______ _______ _______ _____ _____    ______ ____
ROOT
ATOM      1  C   LIG    1        5.172  -1.868  -5.453  0.00  0.00    +0.157 C 
ATOM      2  N   LIG    1        4.381  -1.423  -4.303  0.00  0.00    -0.264 N 
ATOM      3  C   LIG    1        5.002  -1.089  -3.155  0.00  0.00    +0.262 A 
ATOM      4  C   LIG    1        4.242  -0.657  -2.056  0.00  0.00    +0.059 A 
ATOM      5  C   LIG    1        2.882  -0.597  -2.172  0.00  0.00    +0.111 A 
ATOM      6  N   LIG    1        2.290  -0.947  -3.362  0.00  0.00    -0.295 N 
ATOM      7  H   LIG    1        1.325  -0.903  -3.452  0.00  0.00    +0.172 HD
ATOM      8  O   LIG    1        6.217  -1.156  -3.072  0.00  0.00    -0.267 OA
ATOM      9  C   LIG    1        3.041  -1.352  -4.402  0.00  0.00    +0.330 A 
ATOM     10  O   LIG    1        2.501  -1.658  -5.447  0.00  0.00    -0.246 OA
ENDROOT
BRANCH   5  11
ATOM     11  N   LIG    1        2.114  -0.184  -1.113  0.00  0.00    -0.316 N 
ATOM     12  C   LIG    1        0.845  -0.920  -1.065  0.00  0.00    +0.107 C 
ATOM     13  C   LIG    1        0.081  -0.540   0.206  0.00  0.00    +0.023 C 
ATOM     14  C   LIG    1       -0.182   0.968   0.206  0.00  0.00    -0.004 C 
ATOM     15  C   LIG    1        1.154   1.711   0.106  0.00  0.00    +0.023 C 
ATOM     16  C   LIG    1        1.886   1.266  -1.162  0.00  0.00    +0.107 C 
BRANCH  14  17
ATOM     17  C   LIG    1       -0.891   1.363   1.502  0.00  0.00    +0.038 C 
BRANCH  17  18
ATOM     18  C   LIG    1       -1.259   2.824   1.448  0.00  0.00    -0.047 A 
ATOM     19  C   LIG    1       -0.375   3.777   1.919  0.00  0.00    +0.003 A 
ATOM     20  C   LIG    1       -0.711   5.117   1.866  0.00  0.00    +0.000 A 
ATOM     21  C   LIG    1       -1.934   5.503   1.350  0.00  0.00    +0.000 A 
ATOM     22  C   LIG    1       -2.819   4.550   0.884  0.00  0.00    +0.000 A 
ATOM     23  C   LIG    1       -2.482   3.210   0.933  0.00  0.00    +0.003 A 
ENDBRANCH  17  18
ENDBRANCH  14  17
ENDBRANCH   5  11
BRANCH   4  24
ATOM     24  C   LIG    1        4.917  -0.272  -0.765  0.00  0.00    +0.079 C 
BRANCH  24  25
ATOM     25  C   LIG    1        5.141  -1.504   0.073  0.00  0.00    -0.041 A 
ATOM     26  C   LIG    1        4.175  -1.912   0.974  0.00  0.00    +0.004 A 
ATOM     27  C   LIG    1        4.377  -3.045   1.739  0.00  0.00    +0.002 A 
ATOM     28  C   LIG    1        5.549  -3.766   1.611  0.00  0.00    +0.020 A 
ATOM     29  C   LIG    1        6.518  -3.355   0.713  0.00  0.00    +0.041 A 
ATOM     30 CL   LIG    1        7.992  -4.260   0.552  0.00  0.00    -0.084 Cl
ATOM     31  C   LIG    1        6.313  -2.224  -0.056  0.00  0.00    +0.024 A 
ENDBRANCH  24  25
ENDBRANCH   4  24
TORSDOF 5
