REMARK  Name = ZINC06588862
REMARK                            x       y       z     vdW  Elec       q    Type
REMARK                         _______ _______ _______ _____ _____    ______ ____
ROOT
ATOM      1  S   LIG    1        0.107  -7.190   0.486  0.00  0.00    +0.101 S 
ATOM      2  O   LIG    1        1.347  -7.062  -0.195  0.00  0.00    -0.146 OA
ATOM      3  O   LIG    1       -1.143  -7.097  -0.184  0.00  0.00    -0.146 OA
ENDROOT
BRANCH   1  12
ATOM      4  C   LIG    1       -0.018   1.503   0.010  0.00  0.00    +0.044 C 
ATOM      5  C   LIG    1        0.002  -0.004   0.002  0.00  0.00    -0.049 A 
ATOM      6  C   LIG    1        0.006  -0.699  -1.195  0.00  0.00    +0.005 A 
ATOM      7  C   LIG    1        0.025  -2.073  -1.221  0.00  0.00    +0.027 A 
ATOM      8  C   LIG    1        0.041  -2.818  -0.030  0.00  0.00    +0.055 A 
ATOM      9  C   LIG    1        0.037  -2.086   1.165  0.00  0.00    +0.039 A 
ATOM     10  S   LIG    1        0.061  -3.341   2.422  0.00  0.00    -0.048 S 
ATOM     11  C   LIG    1        0.076  -4.768   1.350  0.00  0.00    +0.192 A 
ATOM     12  N   LIG    1        0.095  -6.035   1.672  0.00  0.00    -0.103 NA
ATOM     13  N   LIG    1        0.061  -4.198   0.101  0.00  0.00    -0.332 N 
ATOM     14  H   LIG    1        0.065  -4.760  -0.690  0.00  0.00    +0.168 HD
ATOM     15  C   LIG    1        0.023  -0.712   1.192  0.00  0.00    +0.020 A 
ENDBRANCH   1  12
BRANCH   1  16
ATOM     16  C   LIG    1        0.133  -8.759   1.288  0.00  0.00    +0.113 A 
ATOM     17  C   LIG    1        1.340  -9.355   1.602  0.00  0.00    +0.031 A 
ATOM     18  C   LIG    1        1.361 -10.586   2.231  0.00  0.00    +0.034 A 
ATOM     19  C   LIG    1        0.174 -11.221   2.546  0.00  0.00    +0.122 A 
ATOM     20  C   LIG    1       -1.033 -10.624   2.233  0.00  0.00    +0.034 A 
ATOM     21  C   LIG    1       -1.054  -9.392   1.608  0.00  0.00    +0.031 A 
BRANCH  19  22
ATOM     22  N   LIG    1        0.196 -12.539   3.219  0.00  0.00    +0.006 N 
ATOM     23  O   LIG    1        1.252 -13.060   3.492  0.00  0.00    -0.130 OA
BRANCH  22  24
ATOM     24  O   LIG    1       -0.842 -13.094   3.494  0.00  0.00    -0.396 OA
ATOM     25  H   LIG    1       -1.660 -12.690   3.282  0.00  0.00    +0.329 HD
ENDBRANCH  22  24
ENDBRANCH  19  22
ENDBRANCH   1  16
TORSDOF 4
