REMARK  Name = ZINC06267373
REMARK                            x       y       z     vdW  Elec       q    Type
REMARK                         _______ _______ _______ _____ _____    ______ ____
ROOT
ATOM      1  C   LIG    1        3.539  -2.618  -6.550  0.00  0.00    +0.037 A 
ATOM      2  C   LIG    1        2.497  -2.767  -7.471  0.00  0.00    +0.015 A 
ATOM      3  C   LIG    1        2.771  -3.171  -8.757  0.00  0.00    +0.025 A 
ATOM      4  C   LIG    1        4.083  -3.431  -9.142  0.00  0.00    +0.048 A 
ATOM      5  C   LIG    1        5.123  -3.284  -8.227  0.00  0.00    +0.025 A 
ATOM      6  C   LIG    1        4.856  -2.875  -6.941  0.00  0.00    +0.015 A 
ENDROOT
BRANCH   1   9
ATOM      7  N   LIG    1        1.978  -1.937  -4.794  0.00  0.00    -0.259 N 
ATOM      8  H   LIG    1        1.255  -2.044  -5.431  0.00  0.00    +0.157 HD
ATOM      9  C   LIG    1        3.249  -2.184  -5.170  0.00  0.00    +0.250 C 
ATOM     10  O   LIG    1        4.156  -2.050  -4.372  0.00  0.00    -0.270 OA
BRANCH   7  14
ATOM     11  C   LIG    1        0.827  -0.738  -1.108  0.00  0.00    +0.103 A 
ATOM     12  N   LIG    1        2.106  -0.946  -1.347  0.00  0.00    -0.145 NA
ATOM     13  N   LIG    1        2.527  -1.321  -2.475  0.00  0.00    -0.126 NA
ATOM     14  C   LIG    1        1.705  -1.529  -3.494  0.00  0.00    +0.188 A 
ATOM     15  S   LIG    1        0.142  -1.140  -2.713  0.00  0.00    -0.035 S 
BRANCH  11  17
ATOM     16  C   LIG    1        0.044   1.231   0.179  0.00  0.00    +0.011 C 
ATOM     17  C   LIG    1        0.136  -0.296   0.156  0.00  0.00    +0.061 C 
ENDBRANCH  11  17
ENDBRANCH   7  14
ENDBRANCH   1   9
BRANCH   4  18
ATOM     18  N   LIG    1        4.357  -3.840 -10.443  0.00  0.00    -0.216 N 
ATOM     19  H   LIG    1        3.820  -4.534 -10.856  0.00  0.00    +0.174 HD
BRANCH  18  20
ATOM     20  S   LIG    1        5.598  -3.141 -11.287  0.00  0.00    +0.072 S 
ATOM     21  O   LIG    1        5.556  -3.686 -12.598  0.00  0.00    -0.150 OA
ATOM     22  O   LIG    1        6.751  -3.230 -10.461  0.00  0.00    -0.150 OA
BRANCH  20  23
ATOM     23  C   LIG    1        5.222  -1.426 -11.442  0.00  0.00    +0.108 A 
ATOM     24  C   LIG    1        4.407  -0.988 -12.469  0.00  0.00    +0.029 A 
ATOM     25  C   LIG    1        4.112   0.357 -12.590  0.00  0.00    +0.002 A 
ATOM     26  C   LIG    1        4.632   1.264 -11.686  0.00  0.00    +0.000 A 
ATOM     27  C   LIG    1        5.447   0.825 -10.659  0.00  0.00    +0.002 A 
ATOM     28  C   LIG    1        5.739  -0.520 -10.535  0.00  0.00    +0.029 A 
ENDBRANCH  20  23
ENDBRANCH  18  20
ENDBRANCH   4  18
TORSDOF 6
