REMARK  Name = ZINC06827693
REMARK                            x       y       z     vdW  Elec       q    Type
REMARK                         _______ _______ _______ _____ _____    ______ ____
ROOT
ATOM      1  C   LIG    1       -0.015   1.221   0.009  0.00  0.00    +0.505 C 
ATOM      2  O   LIG    1        0.002  -0.004   0.002  0.00  0.00    -0.203 OA
ENDROOT
BRANCH   1   3
ATOM      3  O   LIG    1       -1.084   1.819   0.017  0.00  0.00    -0.450 OA
ATOM      4  H   LIG    1       -1.889   1.339   0.022  0.00  0.00    +0.299 HD
ENDBRANCH   1   3
BRANCH   1   5
ATOM      5  O   LIG    1        1.038   1.848   0.002  0.00  0.00    -0.450 OA
ATOM      6  H   LIG    1        1.856   1.390  -0.004  0.00  0.00    +0.299 HD
ENDBRANCH   1   5
TORSDOF 2
