REMARK  Name = ZINC06507046
REMARK                            x       y       z     vdW  Elec       q    Type
REMARK                         _______ _______ _______ _____ _____    ______ ____
ROOT
ATOM      1  C   LIG    1        1.503  -2.374   2.477  0.00  0.00    +0.148 A 
ATOM      2  C   LIG    1        1.614  -3.755   2.616  0.00  0.00    +0.045 A 
ATOM      3  C   LIG    1        2.279  -4.262   3.728  0.00  0.00    +0.011 A 
ATOM      4  C   LIG    1        2.595  -5.614   4.215  0.00  0.00    +0.008 A 
ATOM      5  C   LIG    1        2.339  -6.895   3.730  0.00  0.00    +0.010 A 
ATOM      6  C   LIG    1        2.778  -7.995   4.435  0.00  0.00    +0.001 A 
ATOM      7  C   LIG    1        3.474  -7.831   5.624  0.00  0.00    +0.002 A 
ATOM      8  C   LIG    1        3.734  -6.570   6.115  0.00  0.00    +0.026 A 
ATOM      9  C   LIG    1        3.299  -5.447   5.418  0.00  0.00    +0.048 A 
ATOM     10  N   LIG    1        3.417  -4.092   5.670  0.00  0.00    -0.353 N 
ATOM     11  H   LIG    1        3.862  -3.709   6.442  0.00  0.00    +0.166 HD
ATOM     12  C   LIG    1        2.813  -3.363   4.670  0.00  0.00    +0.066 A 
ATOM     13  C   LIG    1        2.654  -1.994   4.451  0.00  0.00    +0.137 A 
ATOM     14  N   LIG    1        2.025  -1.554   3.386  0.00  0.00    -0.246 NA
ENDROOT
BRANCH   1  15
ATOM     15  C   LIG    1        0.801  -1.812   1.304  0.00  0.00    +0.358 C 
ATOM     16  O   LIG    1        0.322  -2.554   0.471  0.00  0.00    -0.243 OA
BRANCH  15  17
ATOM     17  O   LIG    1        0.693  -0.477   1.160  0.00  0.00    -0.460 OA
BRANCH  17  19
ATOM     18  C   LIG    1       -0.019   1.526   0.010  0.00  0.00    +0.048 C 
ATOM     19  C   LIG    1        0.002  -0.004   0.002  0.00  0.00    +0.229 C 
ENDBRANCH  17  19
ENDBRANCH  15  17
ENDBRANCH   1  15
TORSDOF 3
