REMARK  Name = ZINC06498222
REMARK                            x       y       z     vdW  Elec       q    Type
REMARK                         _______ _______ _______ _____ _____    ______ ____
ROOT
ATOM      1  C   LIG    1       -0.018   1.503   0.010  0.00  0.00    +0.068 C 
ATOM      2  C   LIG    1        0.002  -0.004   0.002  0.00  0.00    +0.069 A 
ATOM      3  C   LIG    1        0.008  -0.827  -1.168  0.00  0.00    +0.031 A 
ATOM      4  C   LIG    1       -0.001  -0.693  -2.615  0.00  0.00    +0.032 A 
ATOM      5  C   LIG    1        0.011  -1.819  -3.375  0.00  0.00    +0.078 A 
ATOM      6  S   LIG    1        0.034  -3.127  -2.163  0.00  0.00    -0.064 S 
ATOM      7  C   LIG    1        0.028  -2.141  -0.690  0.00  0.00    +0.113 A 
ATOM      8  N   LIG    1        0.034  -2.107   0.662  0.00  0.00    -0.225 N 
ATOM      9  N   LIG    1        0.023  -0.764   1.057  0.00  0.00    -0.170 NA
ENDROOT
BRANCH   8  10
ATOM     10  C   LIG    1        0.052  -3.219   1.514  0.00  0.00    +0.067 A 
ATOM     11  C   LIG    1       -0.619  -4.380   1.157  0.00  0.00    +0.028 A 
ATOM     12  C   LIG    1       -0.599  -5.474   2.000  0.00  0.00    +0.002 A 
ATOM     13  C   LIG    1        0.088  -5.413   3.199  0.00  0.00    +0.000 A 
ATOM     14  C   LIG    1        0.757  -4.257   3.557  0.00  0.00    +0.002 A 
ATOM     15  C   LIG    1        0.746  -3.162   2.716  0.00  0.00    +0.028 A 
ENDBRANCH   8  10
BRANCH   5  16
ATOM     16  C   LIG    1        0.004  -1.932  -4.841  0.00  0.00    +0.256 A 
ATOM     17  N   LIG    1       -0.008  -0.937  -5.698  0.00  0.00    -0.106 NA
ATOM     18  N   LIG    1       -0.010  -1.405  -6.896  0.00  0.00    -0.101 NA
ATOM     19  C   LIG    1        0.001  -2.717  -6.854  0.00  0.00    +0.275 A 
ATOM     20  O   LIG    1        0.017  -3.080  -5.556  0.00  0.00    -0.411 OA
BRANCH  19  21
ATOM     21  S   LIG    1        0.004  -3.804  -8.240  0.00  0.00    -0.083 S 
ATOM     22  H   LIG    1       -0.015  -3.075  -9.388  0.00  0.00    +0.112 HD
ENDBRANCH  19  21
ENDBRANCH   5  16
TORSDOF 3
