REMARK  Name = ZINC07653971
REMARK                            x       y       z     vdW  Elec       q    Type
REMARK                         _______ _______ _______ _____ _____    ______ ____
ROOT
ATOM      1  N   LIG    1        6.011  -2.069   0.714  0.00  0.00    -0.310 NA
ATOM      2  H   LIG    1        6.040  -1.066   0.611  0.00  0.00    +0.122 HD
ENDROOT
BRANCH   1   3
ATOM      3  C   LIG    1        4.918  -2.649  -0.077  0.00  0.00    +0.129 C 
BRANCH   3  11
ATOM      4  C   LIG    1       -0.017   1.378   0.010  0.00  0.00    +0.004 A 
ATOM      5  C   LIG    1        1.170   2.088   0.002  0.00  0.00    +0.004 A 
ATOM      6  C   LIG    1        2.378   1.418  -0.014  0.00  0.00    +0.049 A 
ATOM      7  C   LIG    1        2.404   0.031  -0.023  0.00  0.00    +0.163 A 
ATOM      8  C   LIG    1        1.212  -0.683  -0.013  0.00  0.00    +0.162 A 
ATOM      9  O   LIG    1        1.214  -2.044  -0.013  0.00  0.00    -0.485 OA
ATOM     10  C   LIG    1        2.434  -2.685  -0.404  0.00  0.00    +0.275 C 
ATOM     11  C   LIG    1        3.594  -1.997   0.328  0.00  0.00    +0.224 C 
ATOM     12  O   LIG    1        3.602  -0.615  -0.043  0.00  0.00    -0.481 OA
ATOM     13  C   LIG    1        0.002  -0.004   0.002  0.00  0.00    +0.049 A 
ENDBRANCH   3  11
ENDBRANCH   1   3
BRANCH   1  14
ATOM     14  C   LIG    1        7.301  -2.673   0.352  0.00  0.00    +0.115 C 
BRANCH  14  15
ATOM     15  C   LIG    1        8.412  -2.045   1.195  0.00  0.00    +0.166 C 
BRANCH  15  16
ATOM     16  O   LIG    1        8.213  -2.378   2.570  0.00  0.00    -0.387 OA
ATOM     17  H   LIG    1        8.220  -3.328   2.750  0.00  0.00    +0.210 HD
ENDBRANCH  15  16
BRANCH  15  18
ATOM     18  C   LIG    1        9.768  -2.582   0.732  0.00  0.00    +0.261 C 
BRANCH  18  19
ATOM     19  O   LIG    1       10.813  -1.910   1.439  0.00  0.00    -0.486 OA
BRANCH  19  20
ATOM     20  C   LIG    1       12.090  -2.272   1.143  0.00  0.00    +0.156 A 
ATOM     21  C   LIG    1       12.332  -3.248   0.189  0.00  0.00    +0.048 A 
ATOM     22  C   LIG    1       13.631  -3.615  -0.110  0.00  0.00    +0.004 A 
ATOM     23  C   LIG    1       14.689  -3.009   0.542  0.00  0.00    +0.003 A 
ATOM     24  C   LIG    1       14.452  -2.035   1.494  0.00  0.00    +0.042 A 
ATOM     25  C   LIG    1       13.155  -1.660   1.793  0.00  0.00    +0.165 A 
ATOM     26  F   LIG    1       12.923  -0.704   2.719  0.00  0.00    -0.202 F 
ENDBRANCH  19  20
ENDBRANCH  18  19
ENDBRANCH  15  18
ENDBRANCH  14  15
ENDBRANCH   1  14
TORSDOF 8
