REMARK  Name = ZINC06716969
REMARK                            x       y       z     vdW  Elec       q    Type
REMARK                         _______ _______ _______ _____ _____    ______ ____
ROOT
ATOM      1  C   LIG    1       -2.296   4.301  -0.376  0.00  0.00    +0.064 C 
ATOM      2  C   LIG    1       -1.062   3.463  -0.157  0.00  0.00    +0.034 A 
ATOM      3  C   LIG    1       -1.162   2.108  -0.050  0.00  0.00    +0.069 A 
ATOM      4  C   LIG    1        0.067   1.334   0.168  0.00  0.00    +0.265 A 
ATOM      5  N   LIG    1        1.242   1.992   0.243  0.00  0.00    -0.262 N 
ATOM      6  C   LIG    1        1.279   3.331   0.124  0.00  0.00    +0.332 A 
ATOM      7  O   LIG    1        2.351   3.901   0.195  0.00  0.00    -0.246 OA
ATOM      8  O   LIG    1        0.026   0.122   0.274  0.00  0.00    -0.267 OA
ATOM      9  N   LIG    1        0.165   4.056  -0.070  0.00  0.00    -0.293 N 
ENDROOT
BRANCH   3  10
ATOM     10  C   LIG    1       -2.479   1.433  -0.146  0.00  0.00    +0.028 A 
ATOM     11  C   LIG    1       -3.101   1.285  -1.385  0.00  0.00    +0.012 A 
ATOM     12  C   LIG    1       -4.327   0.656  -1.471  0.00  0.00    +0.004 A 
ATOM     13  C   LIG    1       -4.941   0.171  -0.332  0.00  0.00    +0.048 A 
ATOM     14  C   LIG    1       -4.331   0.312   0.906  0.00  0.00    +0.156 A 
ATOM     15  C   LIG    1       -3.097   0.938   1.002  0.00  0.00    +0.173 A 
ATOM     16  F   LIG    1       -2.498   1.073   2.206  0.00  0.00    -0.201 F 
BRANCH  14  17
ATOM     17  O   LIG    1       -4.939  -0.168   2.023  0.00  0.00    -0.492 OA
ATOM     18  C   LIG    1       -6.205  -0.806   1.849  0.00  0.00    +0.277 C 
ENDBRANCH  14  17
ENDBRANCH   3  10
BRANCH   5  19
ATOM     19  C   LIG    1        2.485   1.245   0.454  0.00  0.00    +0.118 C 
BRANCH  19  20
ATOM     20  C   LIG    1        3.081   0.854  -0.899  0.00  0.00    -0.024 C 
BRANCH  20  21
ATOM     21  C   LIG    1        4.291  -0.018  -0.682  0.00  0.00    -0.060 A 
ATOM     22  C   LIG    1        4.132  -1.362  -0.397  0.00  0.00    +0.002 A 
ATOM     23  C   LIG    1        5.241  -2.163  -0.202  0.00  0.00    +0.000 A 
ATOM     24  C   LIG    1        6.510  -1.619  -0.283  0.00  0.00    +0.000 A 
ATOM     25  C   LIG    1        6.668  -0.274  -0.563  0.00  0.00    +0.000 A 
ATOM     26  C   LIG    1        5.559   0.526  -0.762  0.00  0.00    +0.002 A 
ENDBRANCH  20  21
BRANCH  20  27
ATOM     27  N   LIG    1        2.061   0.134  -1.682  0.00  0.00    +0.384 N 
ATOM     28  H   LIG    1        1.234   0.732  -1.790  0.00  0.00    -0.089 HD
ATOM     29  H   LIG    1        1.792  -0.722  -1.200  0.00  0.00    -0.089 HD
ATOM     30  H   LIG    1        2.427  -0.097  -2.604  0.00  0.00    -0.089 HD
ENDBRANCH  20  27
ENDBRANCH  19  20
ENDBRANCH   5  19
BRANCH   9  31
ATOM     31  C   LIG    1        0.269   5.512  -0.191  0.00  0.00    +0.167 C 
BRANCH  31  32
ATOM     32  C   LIG    1        0.441   5.884  -1.641  0.00  0.00    +0.043 A 
ATOM     33  C   LIG    1        1.692   5.818  -2.229  0.00  0.00    +0.131 A 
ATOM     34  F   LIG    1        2.760   5.420  -1.504  0.00  0.00    -0.205 F 
ATOM     35  C   LIG    1        1.848   6.154  -3.564  0.00  0.00    +0.039 A 
ATOM     36  C   LIG    1        0.757   6.568  -4.305  0.00  0.00    +0.006 A 
ATOM     37  C   LIG    1       -0.491   6.640  -3.717  0.00  0.00    +0.039 A 
ATOM     38  C   LIG    1       -0.651   6.298  -2.384  0.00  0.00    +0.131 A 
ATOM     39  F   LIG    1       -1.872   6.368  -1.810  0.00  0.00    -0.205 F 
ENDBRANCH  31  32
ENDBRANCH   9  31
TORSDOF 8
