REMARK  Name = ZINC06755699
REMARK                            x       y       z     vdW  Elec       q    Type
REMARK                         _______ _______ _______ _____ _____    ______ ____
ROOT
ATOM      1  C   LIG    1       -0.724   2.012   1.250  0.00  0.00    +0.235 C 
ATOM      2  N   LIG    1       -0.863   3.334   1.472  0.00  0.00    -0.185 N 
ATOM      3  C   LIG    1       -1.532   3.941   2.633  0.00  0.00    +0.137 C 
ATOM      4  C   LIG    1       -1.398   5.455   2.377  0.00  0.00    +0.087 C 
ATOM      5  C   LIG    1       -0.656   5.538   1.062  0.00  0.00    +0.069 C 
ATOM      6  N   LIG    1       -0.402   4.349   0.636  0.00  0.00    -0.181 NA
ATOM      7  O   LIG    1       -1.167   1.213   2.049  0.00  0.00    -0.274 OA
ENDROOT
BRANCH   5   8
ATOM      8  C   LIG    1       -0.281   6.787   0.373  0.00  0.00    -0.002 A 
ATOM      9  C   LIG    1       -0.617   8.023   0.930  0.00  0.00    +0.011 A 
ATOM     10  C   LIG    1       -0.258   9.187   0.284  0.00  0.00    +0.020 A 
ATOM     11  C   LIG    1        0.423   9.132  -0.921  0.00  0.00    +0.041 A 
ATOM     12 CL   LIG    1        0.865  10.602  -1.731  0.00  0.00    -0.084 Cl
ATOM     13  C   LIG    1        0.754   7.910  -1.481  0.00  0.00    +0.020 A 
ATOM     14  C   LIG    1        0.406   6.738  -0.842  0.00  0.00    +0.011 A 
ENDBRANCH   5   8
BRANCH   3  15
ATOM     15  C   LIG    1       -2.983   3.536   2.682  0.00  0.00    -0.024 A 
ATOM     16  C   LIG    1       -3.712   3.442   1.511  0.00  0.00    +0.009 A 
ATOM     17  C   LIG    1       -5.041   3.066   1.552  0.00  0.00    +0.046 A 
ATOM     18  C   LIG    1       -5.646   2.792   2.770  0.00  0.00    +0.120 A 
ATOM     19  C   LIG    1       -4.913   2.892   3.944  0.00  0.00    +0.046 A 
ATOM     20  C   LIG    1       -3.583   3.264   3.897  0.00  0.00    +0.009 A 
BRANCH  18  21
ATOM     21  O   LIG    1       -6.954   2.426   2.814  0.00  0.00    -0.495 OA
ATOM     22  C   LIG    1       -7.646   2.344   1.566  0.00  0.00    +0.277 C 
ENDBRANCH  18  21
ENDBRANCH   3  15
BRANCH   1  24
ATOM     23  C   LIG    1        0.002  -0.004   0.002  0.00  0.00    +0.013 C 
ATOM     24  C   LIG    1       -0.019   1.526   0.010  0.00  0.00    +0.094 C 
ENDBRANCH   1  24
TORSDOF 4
