REMARK  Name = ZINC08034876
REMARK                            x       y       z     vdW  Elec       q    Type
REMARK                         _______ _______ _______ _____ _____    ______ ____
ROOT
ATOM      1  N   LIG    1      -12.689 -16.986   0.032  0.00  0.00    -0.281 N 
ATOM      2  H   LIG    1      -13.435 -16.366   0.042  0.00  0.00    +0.152 HD
ATOM      3  C   LIG    1      -12.918 -18.315   0.027  0.00  0.00    +0.400 C 
ATOM      4  O   LIG    1      -11.983 -19.092   0.014  0.00  0.00    -0.226 OA
ENDROOT
BRANCH   3   5
ATOM      5  O   LIG    1      -14.181 -18.781   0.037  0.00  0.00    -0.448 OA
BRANCH   5   6
ATOM      6  C   LIG    1      -14.349 -20.200   0.031  0.00  0.00    +0.267 C 
BRANCH   6   7
ATOM      7  C   LIG    1      -15.841 -20.537   0.043  0.00  0.00    +0.181 C 
BRANCH   7   8
ATOM      8  O   LIG    1      -16.419 -20.093   1.272  0.00  0.00    -0.374 OA
ATOM      9  C   LIG    1      -17.796 -19.722   1.166  0.00  0.00    +0.194 C 
ENDBRANCH   7   8
BRANCH   7  10
ATOM     10  C   LIG    1      -16.023 -22.050  -0.089  0.00  0.00    +0.207 C 
BRANCH  10  11
ATOM     11  O   LIG    1      -17.416 -22.355  -0.195  0.00  0.00    -0.284 OA
BRANCH  11  12
ATOM     12  P   LIG    1      -17.975 -23.857  -0.348  0.00  0.00    +0.475 P 
ATOM     13  O   LIG    1      -17.303 -24.535  -1.562  0.00  0.00    -0.227 OA
BRANCH  12  14
ATOM     14  O   LIG    1      -17.655 -24.659   0.933  0.00  0.00    -0.302 OA
ATOM     15  H   LIG    1      -16.694 -24.684   1.067  0.00  0.00    +0.222 HD
ENDBRANCH  12  14
BRANCH  12  16
ATOM     16  O   LIG    1      -19.569 -23.815  -0.570  0.00  0.00    -0.285 OA
BRANCH  16  17
ATOM     17  C   LIG    1      -20.348 -24.982  -0.843  0.00  0.00    +0.194 C 
BRANCH  17  18
ATOM     18  C   LIG    1      -21.818 -24.589  -0.999  0.00  0.00    +0.150 C 
BRANCH  18  19
ATOM     19  N   LIG    1      -22.616 -25.785  -1.279  0.00  0.00    -0.345 N 
ATOM     20  C   LIG    1      -22.803 -26.159  -2.529  0.00  0.00    +0.093 A 
ATOM     21  C   LIG    1      -23.550 -27.274  -2.733  0.00  0.00    +0.064 A 
ATOM     22  S   LIG    1      -23.943 -27.719  -1.049  0.00  0.00    -0.086 S 
ATOM     23  C   LIG    1      -23.125 -26.464  -0.281  0.00  0.00    +0.131 A 
ENDBRANCH  18  19
ENDBRANCH  17  18
ENDBRANCH  16  17
ENDBRANCH  12  16
ENDBRANCH  11  12
ENDBRANCH  10  11
ENDBRANCH   7  10
ENDBRANCH   6   7
ENDBRANCH   5   6
ENDBRANCH   3   5
BRANCH   1  24
ATOM     24  C   LIG    1      -11.315 -16.479   0.022  0.00  0.00    +0.107 C 
BRANCH  24  25
ATOM     25  C   LIG    1      -11.336 -14.950   0.030  0.00  0.00    +0.019 C 
BRANCH  25  26
ATOM     26  C   LIG    1       -9.900 -14.420   0.019  0.00  0.00    +0.002 C 
BRANCH  26  27
ATOM     27  C   LIG    1       -9.921 -12.890   0.028  0.00  0.00    +0.000 C 
BRANCH  27  28
ATOM     28  C   LIG    1       -8.486 -12.361   0.017  0.00  0.00    +0.000 C 
BRANCH  28  29
ATOM     29  C   LIG    1       -8.507 -10.831   0.025  0.00  0.00    +0.000 C 
BRANCH  29  30
ATOM     30  C   LIG    1       -7.071 -10.301   0.014  0.00  0.00    -0.000 C 
BRANCH  30  31
ATOM     31  C   LIG    1       -7.092  -8.771   0.023  0.00  0.00    -0.000 C 
BRANCH  31  32
ATOM     32  C   LIG    1       -5.657  -8.242   0.012  0.00  0.00    -0.000 C 
BRANCH  32  33
ATOM     33  C   LIG    1       -5.677  -6.712   0.020  0.00  0.00    -0.000 C 
BRANCH  33  34
ATOM     34  C   LIG    1       -4.242  -6.182   0.009  0.00  0.00    -0.000 C 
BRANCH  34  35
ATOM     35  C   LIG    1       -4.263  -4.652   0.018  0.00  0.00    -0.000 C 
BRANCH  35  36
ATOM     36  C   LIG    1       -2.827  -4.123   0.007  0.00  0.00    -0.000 C 
BRANCH  36  37
ATOM     37  C   LIG    1       -2.848  -2.593   0.015  0.00  0.00    -0.000 C 
BRANCH  37  38
ATOM     38  C   LIG    1       -1.413  -2.063   0.004  0.00  0.00    -0.000 C 
BRANCH  38  39
ATOM     39  C   LIG    1       -1.433  -0.534   0.013  0.00  0.00    -0.000 C 
BRANCH  39  41
ATOM     40  C   LIG    1       -0.019   1.526   0.010  0.00  0.00    +0.004 C 
ATOM     41  C   LIG    1        0.002  -0.004   0.002  0.00  0.00    -0.003 C 
ENDBRANCH  39  41
ENDBRANCH  38  39
ENDBRANCH  37  38
ENDBRANCH  36  37
ENDBRANCH  35  36
ENDBRANCH  34  35
ENDBRANCH  33  34
ENDBRANCH  32  33
ENDBRANCH  31  32
ENDBRANCH  30  31
ENDBRANCH  29  30
ENDBRANCH  28  29
ENDBRANCH  27  28
ENDBRANCH  26  27
ENDBRANCH  25  26
ENDBRANCH  24  25
ENDBRANCH   1  24
TORSDOF 29
