REMARK  Name = ZINC06447472
REMARK                            x       y       z     vdW  Elec       q    Type
REMARK                         _______ _______ _______ _____ _____    ______ ____
ROOT
ATOM      1  C   LIG    1        3.658   2.086  -0.024  0.00  0.00    +0.155 C 
ATOM      2  N   LIG    1        2.373   1.381  -0.014  0.00  0.00    -0.280 N 
ATOM      3  C   LIG    1        1.189   2.101   0.002  0.00  0.00    +0.168 A 
ATOM      4  C   LIG    1       -0.017   1.406   0.010  0.00  0.00    +0.149 A 
ATOM      5  N   LIG    1       -1.018   2.360   0.019  0.00  0.00    -0.332 N 
ATOM      6  C   LIG    1       -0.403   3.575   0.025  0.00  0.00    +0.141 A 
ATOM      7  H   LIG    1       -2.003   2.189   0.021  0.00  0.00    +0.168 HD
ATOM      8  C   LIG    1        0.002  -0.004   0.002  0.00  0.00    +0.282 A 
ATOM      9  N   LIG    1        1.188  -0.647  -0.013  0.00  0.00    -0.262 N 
ATOM     10  C   LIG    1        1.214  -2.112  -0.021  0.00  0.00    +0.157 C 
ATOM     11  O   LIG    1       -1.040  -0.634   0.008  0.00  0.00    -0.265 OA
ATOM     12  N   LIG    1        0.904   3.402   0.012  0.00  0.00    -0.210 NA
ATOM     13  C   LIG    1        2.346   0.035  -0.021  0.00  0.00    +0.333 A 
ATOM     14  O   LIG    1        3.395  -0.579  -0.034  0.00  0.00    -0.246 OA
ENDROOT
BRANCH   6  15
ATOM     15  C   LIG    1       -1.093   4.881   0.039  0.00  0.00    +0.018 A 
ATOM     16  C   LIG    1       -2.488   4.937   0.047  0.00  0.00    +0.014 A 
ATOM     17  C   LIG    1       -3.127   6.159   0.064  0.00  0.00    +0.039 A 
ATOM     18  C   LIG    1       -2.386   7.331   0.063  0.00  0.00    +0.123 A 
ATOM     19  F   LIG    1       -3.017   8.525   0.074  0.00  0.00    -0.205 F 
ATOM     20  C   LIG    1       -1.001   7.281   0.050  0.00  0.00    +0.039 A 
ATOM     21  C   LIG    1       -0.352   6.065   0.037  0.00  0.00    +0.014 A 
ENDBRANCH   6  15
TORSDOF 1
