REMARK  Name = ZINC06092539
REMARK                            x       y       z     vdW  Elec       q    Type
REMARK                         _______ _______ _______ _____ _____    ______ ____
ROOT
ATOM      1  C   LIG    1        2.077  -0.080  -1.354  0.00  0.00    +0.162 C 
ATOM      2  O   LIG    1        2.558   0.552  -0.438  0.00  0.00    -0.292 OA
ENDROOT
BRANCH   1   5
ATOM      3  C   LIG    1        3.137  -1.496  -4.662  0.00  0.00    +0.003 A 
ATOM      4  C   LIG    1        2.354  -1.165  -3.575  0.00  0.00    +0.011 A 
ATOM      5  C   LIG    1        2.905  -0.437  -2.517  0.00  0.00    +0.019 A 
ATOM      6  C   LIG    1        4.247  -0.046  -2.571  0.00  0.00    +0.044 A 
ATOM      7  C   LIG    1        5.018  -0.388  -3.662  0.00  0.00    +0.122 A 
ATOM      8  C   LIG    1        4.464  -1.109  -4.705  0.00  0.00    +0.032 A 
BRANCH   7   9
ATOM      9  N   LIG    1        6.439   0.022  -3.719  0.00  0.00    +0.006 N 
ATOM     10  O   LIG    1        7.120  -0.276  -4.684  0.00  0.00    -0.130 OA
BRANCH   9  11
ATOM     11  O   LIG    1        6.927   0.656  -2.801  0.00  0.00    -0.396 OA
ATOM     12  H   LIG    1        6.403   0.885  -2.059  0.00  0.00    +0.329 HD
ENDBRANCH   9  11
ENDBRANCH   7   9
ENDBRANCH   1   5
BRANCH   1  13
ATOM     13  C   LIG    1        0.630  -0.498  -1.303  0.00  0.00    +0.074 C 
BRANCH  13  14
ATOM     14  CA  LIG    1        0.002  -0.004   0.002  0.00  0.00    +0.043 C 
BRANCH  14  15
ATOM     15  N   LIG    1       -0.029   1.469   0.032  0.00  0.00    +0.387 N 
ATOM     16  H1  LIG    1       -0.484   1.779   0.899  0.00  0.00    -0.089 HD
ATOM     17  H2  LIG    1       -0.556   1.823  -0.764  0.00  0.00    -0.089 HD
ATOM     18  H3  LIG    1        0.919   1.839   0.003  0.00  0.00    -0.089 HD
ENDBRANCH  14  15
BRANCH  14  19
ATOM     19  C   LIG    1       -1.407  -0.526   0.111  0.00  0.00    +0.290 C 
ATOM     20  O   LIG    1       -2.340   0.189  -0.172  0.00  0.00    -0.253 OA
BRANCH  19  21
ATOM     21  OXT LIG    1       -1.627  -1.785   0.521  0.00  0.00    -0.482 OA
ATOM     22  HXT LIG    1       -0.904  -2.339   0.740  0.00  0.00    +0.295 HD
ENDBRANCH  19  21
ENDBRANCH  14  19
ENDBRANCH  13  14
ENDBRANCH   1  13
TORSDOF 8
