REMARK  Name = ZINC05974593
REMARK                            x       y       z     vdW  Elec       q    Type
REMARK                         _______ _______ _______ _____ _____    ______ ____
ROOT
ATOM      1  C   LIG    1       -0.013   1.086   0.008  0.00  0.00    -0.006 C 
ATOM      2  C   LIG    1       -0.707   1.585   1.281  0.00  0.00    +0.005 C 
ATOM      3  C   LIG    1       -0.086   0.873   2.482  0.00  0.00    +0.019 C 
ATOM      4  C   LIG    1        1.414   0.985   2.444  0.00  0.00    +0.062 C 
ATOM      5  N   LIG    1        2.057   0.724   3.625  0.00  0.00    -0.286 NA
ATOM      6  H   LIG    1        1.813  -0.223   3.912  0.00  0.00    +0.125 HD
ATOM      7  C   LIG    1        3.416   0.814   3.588  0.00  0.00    +0.193 C 
ATOM      8  N   LIG    1        4.115   1.129   2.508  0.00  0.00    -0.274 NA
ATOM      9  H   LIG    1        3.645   1.320   1.646  0.00  0.00    +0.126 HD
ATOM     10  C   LIG    1        3.500   1.386   1.360  0.00  0.00    +0.126 C 
ATOM     11  C   LIG    1        2.102   1.320   1.303  0.00  0.00    +0.038 C 
ATOM     12  C   LIG    1        1.419   1.619  -0.003  0.00  0.00    +0.011 C 
ENDROOT
BRANCH   7  13
ATOM     13  N   LIG    1        4.082   0.554   4.773  0.00  0.00    -0.303 NA
ATOM     14  H   LIG    1        3.581   0.322   5.570  0.00  0.00    +0.121 HD
ATOM     15  H   LIG    1        5.050   0.603   4.805  0.00  0.00    +0.121 HD
ENDBRANCH   7  13
BRANCH  10  16
ATOM     16  N   LIG    1        4.232   1.717   0.232  0.00  0.00    -0.315 NA
ATOM     17  H   LIG    1        5.200   1.762   0.277  0.00  0.00    +0.120 HD
ATOM     18  H   LIG    1        3.777   1.904  -0.604  0.00  0.00    +0.120 HD
ENDBRANCH  10  16
BRANCH   1  19
ATOM     19  C   LIG    1       -0.761   1.597  -1.225  0.00  0.00    +0.038 C 
BRANCH  19  23
ATOM     20  C   LIG    1        1.001  -0.057  -4.747  0.00  0.00    +0.000 A 
ATOM     21  C   LIG    1       -0.029  -0.724  -4.112  0.00  0.00    +0.000 A 
ATOM     22  C   LIG    1       -0.600  -0.189  -2.972  0.00  0.00    +0.003 A 
ATOM     23  C   LIG    1       -0.139   1.013  -2.467  0.00  0.00    -0.047 A 
ATOM     24  C   LIG    1        0.888   1.683  -3.106  0.00  0.00    +0.003 A 
ATOM     25  C   LIG    1        1.461   1.145  -4.243  0.00  0.00    +0.000 A 
ENDBRANCH  19  23
ENDBRANCH   1  19
TORSDOF 4
