REMARK  Name = ZINC06864978
REMARK                            x       y       z     vdW  Elec       q    Type
REMARK                         _______ _______ _______ _____ _____    ______ ____
ROOT
ATOM      1  S   LIG    1        5.316   0.300  -0.049  0.00  0.00    +0.086 S 
ATOM      2  O   LIG    1        5.058   1.173  -1.140  0.00  0.00    -0.151 OA
ATOM      3  O   LIG    1        6.518  -0.450   0.058  0.00  0.00    -0.151 OA
ENDROOT
BRANCH   1  12
ATOM      4  C   LIG    1        0.015   0.413  -0.143  0.00  0.00    +0.001 A 
ATOM      5  C   LIG    1        1.049   1.347  -0.175  0.00  0.00    +0.001 A 
ATOM      6  C   LIG    1        2.351   0.952  -0.132  0.00  0.00    +0.010 A 
ATOM      7  C   LIG    1        2.660  -0.416  -0.055  0.00  0.00    +0.009 A 
ATOM      8  C   LIG    1        1.609  -1.366  -0.023  0.00  0.00    -0.016 A 
ATOM      9  C   LIG    1        1.918  -2.734   0.054  0.00  0.00    +0.008 A 
ATOM     10  C   LIG    1        3.220  -3.129   0.097  0.00  0.00    +0.003 A 
ATOM     11  C   LIG    1        4.254  -2.195   0.066  0.00  0.00    +0.029 A 
ATOM     12  C   LIG    1        3.992  -0.862  -0.009  0.00  0.00    +0.116 A 
ATOM     13  C   LIG    1        0.276  -0.920  -0.069  0.00  0.00    +0.008 A 
ENDBRANCH   1  12
BRANCH   1  14
ATOM     14  N   LIG    1        5.206   1.216   1.327  0.00  0.00    -0.050 NA
ATOM     15  H   LIG    1        5.107   2.178   1.262  0.00  0.00    +0.191 HD
BRANCH  14  16
ATOM     16  N   LIG    1        5.254   0.600   2.584  0.00  0.00    -0.182 N 
ATOM     17  H   LIG    1        4.629  -0.109   2.801  0.00  0.00    +0.285 HD
BRANCH  16  18
ATOM     18  C   LIG    1        6.189   1.000   3.510  0.00  0.00    +0.394 C 
ATOM     19  N   LIG    1        7.029   1.952   3.218  0.00  0.00    -0.128 NA
ATOM     20  H   LIG    1        6.995   2.379   2.347  0.00  0.00    +0.306 HD
BRANCH  18  21
ATOM     21  N   LIG    1        6.237   0.395   4.744  0.00  0.00    -0.288 N 
ATOM     22  H   LIG    1        6.896   0.678   5.397  0.00  0.00    +0.255 HD
ATOM     23  H   LIG    1        5.611  -0.314   4.961  0.00  0.00    +0.255 HD
ENDBRANCH  18  21
ENDBRANCH  16  18
ENDBRANCH  14  16
ENDBRANCH   1  14
TORSDOF 5
