REMARK  Name = ZINC06091310
REMARK                            x       y       z     vdW  Elec       q    Type
REMARK                         _______ _______ _______ _____ _____    ______ ____
ROOT
ATOM      1  C   LIG    1       -1.653   6.210  -0.471  0.00  0.00    +0.027 A 
ATOM      2  C   LIG    1       -1.142   7.433  -0.035  0.00  0.00    +0.042 A 
ATOM      3 CL   LIG    1       -1.657   8.895  -0.816  0.00  0.00    -0.084 Cl
ATOM      4  C   LIG    1       -0.238   7.506   1.000  0.00  0.00    +0.036 A 
ATOM      5  C   LIG    1        0.215   6.360   1.669  0.00  0.00    +0.080 A 
ATOM      6  C   LIG    1       -0.296   5.122   1.233  0.00  0.00    +0.137 A 
ATOM      7  O   LIG    1       -0.026   3.885   1.700  0.00  0.00    -0.487 OA
ATOM      8  C   LIG    1       -1.086   3.013   1.282  0.00  0.00    +0.181 C 
ATOM      9  C   LIG    1       -0.710   1.569   1.263  0.00  0.00    +0.045 C 
ATOM     10  C   LIG    1       -0.013   1.086   0.008  0.00  0.00    +0.004 C 
ATOM     11  C   LIG    1       -0.740   1.586  -1.238  0.00  0.00    +0.001 C 
ATOM     12  C   LIG    1       -0.734   3.114  -1.221  0.00  0.00    +0.012 C 
ATOM     13  C   LIG    1       -1.562   3.622  -0.041  0.00  0.00    +0.063 C 
ATOM     14  C   LIG    1       -1.215   5.079   0.177  0.00  0.00    +0.003 A 
ENDROOT
BRANCH   5  15
ATOM     15  C   LIG    1        1.183   6.447   2.779  0.00  0.00    +0.248 C 
ATOM     16  N   LIG    1        1.653   7.648   3.171  0.00  0.00    -0.310 N 
ATOM     17  H   LIG    1        1.354   8.455   2.724  0.00  0.00    +0.149 HD
ATOM     18  O   LIG    1        1.557   5.435   3.340  0.00  0.00    -0.270 OA
BRANCH  16  19
ATOM     19  C   LIG    1        2.614   7.734   4.273  0.00  0.00    +0.060 C 
ATOM     20  C   LIG    1        1.863   7.774   5.607  0.00  0.00    -0.056 C 
ATOM     21  N   LIG    1        2.169   9.024   6.335  0.00  0.00    +0.381 N 
ATOM     22  H   LIG    1        1.655   9.027   7.224  0.00  0.00    -0.082 HD
ATOM     23  C   LIG    1        3.618   9.103   6.618  0.00  0.00    -0.078 C 
ATOM     24  C   LIG    1        4.433   9.090   5.303  0.00  0.00    -0.014 C 
ATOM     25  C   LIG    1        1.747  10.192   5.533  0.00  0.00    -0.078 C 
ATOM     26  C   LIG    1        2.495  10.221   4.197  0.00  0.00    -0.014 C 
ATOM     27  C   LIG    1        3.443   9.017   4.133  0.00  0.00    +0.004 C 
ENDBRANCH  16  19
ENDBRANCH   5  15
TORSDOF 2
