REMARK  Name = ZINC08195636
REMARK                            x       y       z     vdW  Elec       q    Type
REMARK                         _______ _______ _______ _____ _____    ______ ____
ROOT
ATOM      1  C   LIG    1       -0.019   1.554   0.011  0.00  0.00    +0.035 C 
ATOM      2  C   LIG    1        1.488   1.917  -0.002  0.00  0.00    +0.035 C 
ATOM      3  C   LIG    1        2.179   0.520  -0.017  0.00  0.00    +0.133 C 
ATOM      4  C   LIG    1        1.999  -0.046   1.422  0.00  0.00    +0.143 C 
ATOM      5  C   LIG    1        0.478  -0.411   1.455  0.00  0.00    +0.143 C 
ATOM      6  C   LIG    1        0.512  -1.928   1.527  0.00  0.00    +0.321 C 
ATOM      7  O   LIG    1        1.731  -2.313   1.098  0.00  0.00    -0.393 OA
ATOM      8  O   LIG    1       -0.383  -2.651   1.897  0.00  0.00    -0.250 OA
ATOM      9  C   LIG    1        2.682  -1.401   1.486  0.00  0.00    +0.321 C 
ATOM     10  O   LIG    1        3.824  -1.616   1.817  0.00  0.00    -0.250 OA
ATOM     11  O   LIG    1        1.211  -0.271  -0.781  0.00  0.00    -0.372 OA
ATOM     12  C   LIG    1        0.002  -0.004   0.002  0.00  0.00    +0.133 C 
ENDROOT
TORSDOF 0
