REMARK  Name = ZINC06747063
REMARK                            x       y       z     vdW  Elec       q    Type
REMARK                         _______ _______ _______ _____ _____    ______ ____
ROOT
ATOM      1  C   LIG    1        2.399   0.028  -0.022  0.00  0.00    +0.162 A 
ATOM      2  C   LIG    1        1.206  -0.678  -0.014  0.00  0.00    +0.050 A 
ATOM      3  C   LIG    1        0.002  -0.004   0.002  0.00  0.00    +0.014 A 
ATOM      4  C   LIG    1       -0.017   1.390   0.010  0.00  0.00    +0.006 A 
ATOM      5  C   LIG    1        1.182   2.101   0.002  0.00  0.00    +0.059 A 
ATOM      6  C   LIG    1        2.386   1.421  -0.014  0.00  0.00    +0.162 A 
ENDROOT
BRANCH   4   7
ATOM      7  C   LIG    1       -1.311   2.115   0.020  0.00  0.00    +0.091 A 
ATOM      8  C   LIG    1       -2.525   1.389   0.016  0.00  0.00    +0.035 A 
ATOM      9  C   LIG    1       -3.695   2.090   0.030  0.00  0.00    +0.073 A 
ATOM     10  C   LIG    1       -3.621   3.500   0.038  0.00  0.00    +0.265 A 
ATOM     11  N   LIG    1       -2.417   4.101   0.036  0.00  0.00    -0.243 N 
ATOM     12  H   LIG    1       -2.373   5.071   0.041  0.00  0.00    +0.192 HD
ATOM     13  O   LIG    1       -4.642   4.169   0.045  0.00  0.00    -0.266 OA
ATOM     14  N   LIG    1       -1.324   3.427   0.027  0.00  0.00    -0.171 NA
ENDBRANCH   4   7
BRANCH   1  16
ATOM     15  C   LIG    1        3.523  -2.067  -0.046  0.00  0.00    +0.277 C 
ATOM     16  O   LIG    1        3.583  -0.639  -0.038  0.00  0.00    -0.491 OA
ENDBRANCH   1  16
BRANCH   6  17
ATOM     17  O   LIG    1        3.558   2.112  -0.022  0.00  0.00    -0.491 OA
ATOM     18  C   LIG    1        3.469   3.538  -0.013  0.00  0.00    +0.277 C 
ENDBRANCH   6  17
TORSDOF 3
