REMARK  Name = ZINC06845519
REMARK                            x       y       z     vdW  Elec       q    Type
REMARK                         _______ _______ _______ _____ _____    ______ ____
ROOT
ATOM      1  C   LIG    1        0.082   1.405   7.455  0.00  0.00    -0.000 C 
ENDROOT
BRANCH   1   2
ATOM      2  C   LIG    1       -0.634   1.898   8.714  0.00  0.00    -0.000 C 
BRANCH   2   3
ATOM      3  C   LIG    1        0.106   1.391   9.953  0.00  0.00    -0.000 C 
BRANCH   3   4
ATOM      4  C   LIG    1       -0.610   1.885  11.212  0.00  0.00    -0.000 C 
BRANCH   4   5
ATOM      5  C   LIG    1        0.130   1.378  12.452  0.00  0.00    -0.000 C 
BRANCH   5   6
ATOM      6  C   LIG    1       -0.586   1.871  13.710  0.00  0.00    -0.000 C 
BRANCH   6   7
ATOM      7  C   LIG    1        0.154   1.365  14.950  0.00  0.00    -0.000 C 
BRANCH   7   9
ATOM      8  C   LIG    1        0.178   1.351  17.448  0.00  0.00    +0.004 C 
ATOM      9  C   LIG    1       -0.562   1.858  16.209  0.00  0.00    -0.003 C 
ENDBRANCH   7   9
ENDBRANCH   6   7
ENDBRANCH   5   6
ENDBRANCH   4   5
ENDBRANCH   3   4
ENDBRANCH   2   3
ENDBRANCH   1   2
BRANCH   1  10
ATOM     10  C   LIG    1       -0.658   1.912   6.215  0.00  0.00    -0.000 C 
BRANCH  10  11
ATOM     11  C   LIG    1        0.058   1.418   4.957  0.00  0.00    -0.000 C 
BRANCH  11  12
ATOM     12  C   LIG    1       -0.682   1.925   3.717  0.00  0.00    -0.002 C 
BRANCH  12  13
ATOM     13  C   LIG    1        0.035   1.432   2.458  0.00  0.00    -0.018 C 
BRANCH  13  14
ATOM     14  C   LIG    1       -0.705   1.938   1.219  0.00  0.00    -0.076 C 
BRANCH  14  15
ATOM     15  N   LIG    1       -0.018   1.465   0.010  0.00  0.00    +0.374 N 
ATOM     16  C   LIG    1       -0.728   1.951  -1.180  0.00  0.00    -0.093 C 
ATOM     17  C   LIG    1        1.360   1.973  -0.000  0.00  0.00    -0.093 C 
ATOM     18  C   LIG    1        0.002  -0.004   0.002  0.00  0.00    -0.093 C 
ENDBRANCH  14  15
ENDBRANCH  13  14
ENDBRANCH  12  13
ENDBRANCH  11  12
ENDBRANCH  10  11
ENDBRANCH   1  10
TORSDOF 13
