REMARK  Name = ZINC06092289
REMARK                            x       y       z     vdW  Elec       q    Type
REMARK                         _______ _______ _______ _____ _____    ______ ____
ROOT
ATOM      1  C   LIG    1       -0.259   1.251   0.463  0.00  0.00    +0.007 A 
ATOM      2  C   LIG    1        0.892   2.017   0.563  0.00  0.00    +0.049 A 
ATOM      3  C   LIG    1        2.175   1.474   0.539  0.00  0.00    +0.159 A 
ATOM      4  C   LIG    1        2.276   0.087   0.387  0.00  0.00    +0.166 A 
ATOM      5  C   LIG    1        1.102  -0.637   0.236  0.00  0.00    +0.013 A 
ATOM      6  C   LIG    1        1.484  -2.086   0.056  0.00  0.00    +0.064 C 
ATOM      7  C   LIG    1        2.867  -2.098   0.681  0.00  0.00    +0.215 C 
ATOM      8  C   LIG    1        2.865  -2.238   2.191  0.00  0.00    +0.156 C 
ATOM      9  C   LIG    1        1.754  -3.087   2.764  0.00  0.00    +0.038 C 
ATOM     10  C   LIG    1        0.418  -2.626   2.204  0.00  0.00    +0.037 C 
ATOM     11  C   LIG    1        1.519  -2.409  -1.439  0.00  0.00    -0.001 C 
ATOM     12  C   LIG    1        0.144  -2.070  -2.029  0.00  0.00    -0.077 C 
ATOM     13  N   LIG    1       -0.905  -2.831  -1.346  0.00  0.00    +0.384 N 
ATOM     14  H   LIG    1       -0.725  -3.818  -1.458  0.00  0.00    -0.081 HD
ATOM     15  C   LIG    1       -0.943  -2.508   0.087  0.00  0.00    -0.031 C 
ATOM     16  C   LIG    1       -1.338  -1.055   0.290  0.00  0.00    +0.023 C 
ATOM     17  C   LIG    1        0.400  -2.895   0.703  0.00  0.00    +0.068 C 
ATOM     18  O   LIG    1        3.340  -0.746   0.373  0.00  0.00    -0.481 OA
ATOM     19  C   LIG    1       -0.171  -0.121   0.313  0.00  0.00    -0.041 A 
ENDROOT
BRANCH   3  20
ATOM     20  O   LIG    1        3.280   2.258   0.659  0.00  0.00    -0.503 OA
ATOM     21  H   LIG    1        3.574   2.387   1.571  0.00  0.00    +0.292 HD
ENDBRANCH   3  20
BRANCH   8  22
ATOM     22  O   LIG    1        4.112  -2.810   2.590  0.00  0.00    -0.388 OA
ATOM     23  H   LIG    1        4.199  -2.937   3.544  0.00  0.00    +0.210 HD
ENDBRANCH   8  22
BRANCH  17  24
ATOM     24  O   LIG    1        0.645  -4.283   0.468  0.00  0.00    -0.389 OA
ATOM     25  H   LIG    1       -0.024  -4.870   0.846  0.00  0.00    +0.210 HD
ENDBRANCH  17  24
BRANCH  13  26
ATOM     26  C   LIG    1       -2.206  -2.508  -1.948  0.00  0.00    -0.075 C 
BRANCH  26  27
ATOM     27  C   LIG    1       -2.232  -2.997  -3.397  0.00  0.00    -0.028 C 
ATOM     28  C   LIG    1       -2.369  -1.941  -4.496  0.00  0.00    +0.002 C 
ATOM     29  C   LIG    1       -3.548  -2.859  -4.166  0.00  0.00    +0.002 C 
ENDBRANCH  26  27
ENDBRANCH  13  26
TORSDOF 5
