REMARK  Name = ZINC06812969
REMARK                            x       y       z     vdW  Elec       q    Type
REMARK                         _______ _______ _______ _____ _____    ______ ____
ROOT
ATOM      1  C   LIG    1       -2.501   1.012   0.019  0.00  0.00    +0.133 C 
ATOM      2  C   LIG    1       -3.700   1.686   0.133  0.00  0.00    +0.071 C 
ATOM      3  C   LIG    1       -5.077   1.076   0.257  0.00  0.00    +0.145 C 
ATOM      4  N   LIG    1       -6.023   2.192   0.350  0.00  0.00    -0.281 N 
ATOM      5  C   LIG    1       -5.343   3.349   0.293  0.00  0.00    +0.288 C 
ATOM      6  O   LIG    1       -5.843   4.454   0.345  0.00  0.00    -0.266 OA
ATOM      7  C   LIG    1       -3.885   3.078   0.162  0.00  0.00    +0.249 C 
ATOM      8  O   LIG    1       -3.006   3.918   0.091  0.00  0.00    -0.282 OA
ENDROOT
BRANCH   1  13
ATOM      9  C   LIG    1       -2.365  -4.707   0.602  0.00  0.00    +0.044 C 
ATOM     10  C   LIG    1       -2.397  -3.208   0.451  0.00  0.00    -0.050 A 
ATOM     11  C   LIG    1       -3.031  -2.434   1.407  0.00  0.00    +0.004 A 
ATOM     12  C   LIG    1       -3.066  -1.062   1.276  0.00  0.00    +0.012 A 
ATOM     13  C   LIG    1       -2.463  -0.453   0.170  0.00  0.00    +0.017 A 
ATOM     14  C   LIG    1       -1.820  -1.242  -0.789  0.00  0.00    +0.012 A 
ATOM     15  C   LIG    1       -1.794  -2.613  -0.644  0.00  0.00    +0.004 A 
ENDBRANCH   1  13
BRANCH   3  16
ATOM     16  C   LIG    1       -5.382   0.240  -0.959  0.00  0.00    -0.022 A 
ATOM     17  C   LIG    1       -5.778   0.849  -2.135  0.00  0.00    +0.006 A 
ATOM     18  C   LIG    1       -6.054   0.083  -3.252  0.00  0.00    +0.004 A 
ATOM     19  C   LIG    1       -5.943  -1.294  -3.190  0.00  0.00    -0.045 A 
ATOM     20  C   LIG    1       -5.552  -1.903  -2.012  0.00  0.00    +0.004 A 
ATOM     21  C   LIG    1       -5.271  -1.136  -0.897  0.00  0.00    +0.006 A 
BRANCH  19  22
ATOM     22  C   LIG    1       -6.247  -2.130  -4.406  0.00  0.00    +0.013 C 
ATOM     23  C   LIG    1       -5.307  -1.734  -5.546  0.00  0.00    +0.012 C 
ATOM     24  C   LIG    1       -7.697  -1.896  -4.836  0.00  0.00    +0.012 C 
ENDBRANCH  19  22
ENDBRANCH   3  16
BRANCH   1  25
ATOM     25  O   LIG    1       -1.364   1.695  -0.230  0.00  0.00    -0.506 OA
ATOM     26  H   LIG    1       -1.569   2.671  -0.302  0.00  0.00    +0.292 HD
ENDBRANCH   1  25
BRANCH   4  27
ATOM     27  C   LIG    1       -7.476   2.065   0.484  0.00  0.00    +0.137 C 
BRANCH  27  28
ATOM     28  C   LIG    1       -7.849   2.014   1.967  0.00  0.00    +0.178 C 
BRANCH  28  29
ATOM     29  O   LIG    1       -7.520   3.260   2.584  0.00  0.00    -0.381 OA
ATOM     30  C   LIG    1       -7.830   3.319   3.977  0.00  0.00    +0.194 C 
ENDBRANCH  28  29
ENDBRANCH  27  28
ENDBRANCH   4  27
TORSDOF 7
