REMARK  Name = ZINC06579217
REMARK                            x       y       z     vdW  Elec       q    Type
REMARK                         _______ _______ _______ _____ _____    ______ ____
ROOT
ATOM      1  C   LIG    1        6.335  -4.064  -0.076  0.00  0.00    -0.035 C 
ATOM      2  C   LIG    1        6.274  -5.045  -1.245  0.00  0.00    +0.026 C 
ATOM      3  C   LIG    1        7.395  -6.048  -1.154  0.00  0.00    -0.004 A 
ATOM      4  C   LIG    1        8.093  -6.275   0.010  0.00  0.00    -0.038 A 
ATOM      5  C   LIG    1        7.807  -5.528   1.286  0.00  0.00    +0.065 C 
ATOM      6  C   LIG    1        9.110  -7.221   0.029  0.00  0.00    +0.004 A 
ATOM      7  C   LIG    1        9.432  -7.931  -1.110  0.00  0.00    +0.004 A 
ATOM      8  C   LIG    1        8.738  -7.703  -2.282  0.00  0.00    +0.046 A 
ATOM      9  C   LIG    1        7.720  -6.764  -2.304  0.00  0.00    +0.124 A 
ATOM     10  C   LIG    1        6.431  -4.868   1.226  0.00  0.00    +0.106 C 
ENDROOT
BRANCH   1  14
ATOM     11  C   LIG    1        2.578  -2.351  -1.126  0.00  0.00    +0.016 C 
ATOM     12  C   LIG    1        2.677  -3.250   0.109  0.00  0.00    -0.011 C 
ATOM     13  C   LIG    1        3.940  -4.107   0.010  0.00  0.00    -0.078 C 
ATOM     14  N   LIG    1        5.121  -3.238  -0.060  0.00  0.00    +0.383 N 
ATOM     15  H   LIG    1        5.140  -2.632   0.747  0.00  0.00    -0.081 HD
ATOM     16  C   LIG    1        5.069  -2.424  -1.280  0.00  0.00    -0.078 C 
ATOM     17  C   LIG    1        3.848  -1.502  -1.230  0.00  0.00    -0.011 C 
BRANCH  11  21
ATOM     18  C   LIG    1       -0.825   0.205  -0.763  0.00  0.00    +0.000 A 
ATOM     19  C   LIG    1       -0.728  -0.669  -1.829  0.00  0.00    +0.000 A 
ATOM     20  C   LIG    1        0.373  -1.496  -1.947  0.00  0.00    +0.004 A 
ATOM     21  C   LIG    1        1.378  -1.449  -0.999  0.00  0.00    -0.044 A 
ATOM     22  C   LIG    1        1.281  -0.574   0.067  0.00  0.00    +0.004 A 
ATOM     23  C   LIG    1        0.179   0.252   0.186  0.00  0.00    +0.000 A 
ENDBRANCH  11  21
ENDBRANCH   1  14
BRANCH  10  24
ATOM     24  O   LIG    1        6.266  -3.994   2.344  0.00  0.00    -0.393 OA
ATOM     25  H   LIG    1        6.316  -4.438   3.202  0.00  0.00    +0.210 HD
ENDBRANCH  10  24
BRANCH   9  26
ATOM     26  O   LIG    1        7.035  -6.538  -3.456  0.00  0.00    -0.489 OA
BRANCH  26  27
ATOM     27  C   LIG    1        7.418  -7.305  -4.600  0.00  0.00    +0.262 C 
BRANCH  27  28
ATOM     28  C   LIG    1        6.542  -6.916  -5.792  0.00  0.00    +0.254 C 
ATOM     29  F   LIG    1        6.791  -5.584  -6.139  0.00  0.00    -0.246 F 
ENDBRANCH  27  28
ENDBRANCH  26  27
ENDBRANCH   9  26
TORSDOF 6
