REMARK  Name = ZINC06053054
REMARK                            x       y       z     vdW  Elec       q    Type
REMARK                         _______ _______ _______ _____ _____    ______ ____
ROOT
ATOM      1  C   LIG    1        0.052   0.833   0.075  0.00  0.00    +0.062 C 
ATOM      2  C   LIG    1       -0.699   1.349   1.304  0.00  0.00    +0.256 C 
ENDROOT
BRANCH   2   3
ATOM      3  C   LIG    1        0.054   0.963   2.551  0.00  0.00    +0.258 C 
ATOM      4  N   LIG    1        0.190  -0.336   2.881  0.00  0.00    -0.282 N 
ATOM      5  H   LIG    1       -0.127  -1.026   2.277  0.00  0.00    +0.155 HD
ATOM      6  O   LIG    1        0.537   1.822   3.258  0.00  0.00    -0.271 OA
BRANCH   4   7
ATOM      7  C   LIG    1        0.790  -0.691   4.095  0.00  0.00    +0.034 A 
ATOM      8  C   LIG    1        1.567  -1.839   4.177  0.00  0.00    +0.025 A 
ATOM      9  C   LIG    1        2.162  -2.184   5.375  0.00  0.00    +0.022 A 
ATOM     10  C   LIG    1        1.975  -1.393   6.495  0.00  0.00    +0.041 A 
ATOM     11 CL   LIG    1        2.719  -1.833   8.001  0.00  0.00    -0.084 Cl
ATOM     12  C   LIG    1        1.197  -0.251   6.417  0.00  0.00    +0.022 A 
ATOM     13  C   LIG    1        0.605   0.101   5.220  0.00  0.00    +0.025 A 
ENDBRANCH   4   7
ENDBRANCH   2   3
BRANCH   2  14
ATOM     14  O   LIG    1       -0.807   2.772   1.234  0.00  0.00    -0.479 OA
BRANCH  14  15
ATOM     15  C   LIG    1       -1.845   3.278   0.518  0.00  0.00    +0.129 A 
ATOM     16  C   LIG    1       -2.668   2.442  -0.183  0.00  0.00    +0.046 A 
ATOM     17  C   LIG    1       -3.739   2.944  -0.917  0.00  0.00    +0.004 A 
ATOM     18  C   LIG    1       -3.992   4.281  -0.967  0.00  0.00    +0.009 A 
ATOM     19  C   LIG    1       -3.165   5.174  -0.264  0.00  0.00    -0.014 A 
ATOM     20  C   LIG    1       -3.396   6.560  -0.293  0.00  0.00    +0.008 A 
ATOM     21  C   LIG    1       -2.574   7.395   0.399  0.00  0.00    +0.001 A 
ATOM     22  C   LIG    1       -1.504   6.896   1.140  0.00  0.00    +0.001 A 
ATOM     23  C   LIG    1       -1.250   5.560   1.191  0.00  0.00    +0.012 A 
ATOM     24  C   LIG    1       -2.076   4.668   0.489  0.00  0.00    +0.024 A 
ENDBRANCH  14  15
ENDBRANCH   2  14
TORSDOF 4
