REMARK  Name = ZINC06143164
REMARK                            x       y       z     vdW  Elec       q    Type
REMARK                         _______ _______ _______ _____ _____    ______ ____
ROOT
ATOM      1  C   LIG    1       -0.800  -2.751   0.227  0.00  0.00    +0.052 C 
ATOM      2  C   LIG    1       -1.897  -1.717   0.248  0.00  0.00    +0.044 A 
ATOM      3  C   LIG    1       -3.233  -2.101   0.435  0.00  0.00    +0.258 A 
ATOM      4  N   LIG    1       -4.200  -1.163   0.451  0.00  0.00    -0.275 N 
ATOM      5  C   LIG    1       -3.895   0.138   0.289  0.00  0.00    +0.332 A 
ATOM      6  N   LIG    1       -2.621   0.533   0.112  0.00  0.00    -0.264 N 
ATOM      7  O   LIG    1       -4.783   0.968   0.307  0.00  0.00    -0.246 OA
ATOM      8  H   LIG    1       -5.250  -1.457   0.597  0.00  0.00    +0.173 HD
ATOM      9  O   LIG    1       -3.519  -3.278   0.583  0.00  0.00    -0.267 OA
ATOM     10  C   LIG    1       -1.603  -0.391   0.085  0.00  0.00    +0.095 A 
ENDROOT
BRANCH   6  11
ATOM     11  C   LIG    1       -2.317   1.957  -0.056  0.00  0.00    +0.290 C 
BRANCH  11  12
ATOM     12  O   LIG    1       -2.005   2.218  -1.426  0.00  0.00    -0.357 OA
BRANCH  12  13
ATOM     13  C   LIG    1       -3.150   2.321  -2.274  0.00  0.00    +0.190 C 
BRANCH  13  14
ATOM     14  C   LIG    1       -2.697   2.532  -3.720  0.00  0.00    +0.184 C 
BRANCH  14  15
ATOM     15  O   LIG    1       -1.994   1.373  -4.173  0.00  0.00    -0.393 OA
ATOM     16  H   LIG    1       -1.590   1.339  -5.195  0.00  0.00    +0.209 HD
ENDBRANCH  14  15
ENDBRANCH  13  14
ENDBRANCH  12  13
ENDBRANCH  11  12
ENDBRANCH   6  11
BRANCH  10  17
ATOM     17  S   LIG    1        0.064   0.128  -0.152  0.00  0.00    -0.071 S 
BRANCH  17  18
ATOM     18  C   LIG    1        0.372   0.889   1.407  0.00  0.00    +0.014 A 
ATOM     19  C   LIG    1       -0.574   0.805   2.421  0.00  0.00    +0.015 A 
ATOM     20  C   LIG    1       -0.328   1.399   3.643  0.00  0.00    +0.001 A 
ATOM     21  C   LIG    1        0.855   2.085   3.855  0.00  0.00    +0.000 A 
ATOM     22  C   LIG    1        1.796   2.174   2.846  0.00  0.00    +0.001 A 
ATOM     23  C   LIG    1        1.558   1.578   1.623  0.00  0.00    +0.015 A 
ENDBRANCH  17  18
ENDBRANCH  10  17
TORSDOF 7
