REMARK  Name = ZINC06576212
REMARK                            x       y       z     vdW  Elec       q    Type
REMARK                         _______ _______ _______ _____ _____    ______ ____
ROOT
ATOM      1  C   LIG    1        2.628  -4.245  -0.046  0.00  0.00    +0.136 C 
ENDROOT
BRANCH   1   8
ATOM      2  C   LIG    1        2.573   1.491  -2.425  0.00  0.00    +0.001 A 
ATOM      3  C   LIG    1        2.481   2.149  -1.207  0.00  0.00    +0.004 A 
ATOM      4  C   LIG    1        2.437   1.439  -0.026  0.00  0.00    +0.047 A 
ATOM      5  C   LIG    1        2.485   0.051  -0.049  0.00  0.00    +0.143 A 
ATOM      6  C   LIG    1        2.578  -0.616  -1.281  0.00  0.00    +0.059 A 
ATOM      7  C   LIG    1        2.628  -2.086  -1.291  0.00  0.00    +0.138 A 
ATOM      8  C   LIG    1        2.581  -2.739  -0.091  0.00  0.00    +0.094 A 
ATOM      9  C   LIG    1        2.488  -2.002   1.099  0.00  0.00    +0.345 A 
ATOM     10  O   LIG    1        2.447  -2.595   2.163  0.00  0.00    -0.245 OA
ATOM     11  O   LIG    1        2.443  -0.660   1.099  0.00  0.00    -0.422 OA
ATOM     12  C   LIG    1        2.621   0.115  -2.470  0.00  0.00    +0.015 A 
BRANCH   7  13
ATOM     13  O   LIG    1        2.717  -2.772  -2.454  0.00  0.00    -0.506 OA
ATOM     14  H   LIG    1        2.748  -2.310  -3.269  0.00  0.00    +0.292 HD
ENDBRANCH   7  13
ENDBRANCH   1   8
BRANCH   1  15
ATOM     15  C   LIG    1        3.168  -4.770  -1.351  0.00  0.00    +0.094 A 
ATOM     16  C   LIG    1        2.399  -5.586  -2.134  0.00  0.00    +0.138 A 
ATOM     17  C   LIG    1        2.973  -6.071  -3.399  0.00  0.00    +0.059 A 
ATOM     18  C   LIG    1        2.244  -6.907  -4.247  0.00  0.00    +0.015 A 
ATOM     19  C   LIG    1        2.810  -7.343  -5.424  0.00  0.00    +0.001 A 
ATOM     20  C   LIG    1        4.097  -6.956  -5.768  0.00  0.00    +0.004 A 
ATOM     21  C   LIG    1        4.828  -6.132  -4.939  0.00  0.00    +0.047 A 
ATOM     22  C   LIG    1        4.276  -5.680  -3.748  0.00  0.00    +0.143 A 
ATOM     23  O   LIG    1        4.977  -4.871  -2.925  0.00  0.00    -0.422 OA
ATOM     24  C   LIG    1        4.460  -4.418  -1.771  0.00  0.00    +0.345 A 
ATOM     25  O   LIG    1        5.134  -3.687  -1.067  0.00  0.00    -0.245 OA
BRANCH  16  26
ATOM     26  O   LIG    1        1.149  -5.936  -1.757  0.00  0.00    -0.506 OA
ATOM     27  H   LIG    1        0.696  -6.516  -2.385  0.00  0.00    +0.292 HD
ENDBRANCH  16  26
ENDBRANCH   1  15
BRANCH   1  28
ATOM     28  C   LIG    1        3.525  -4.686   1.082  0.00  0.00    +0.117 A 
ATOM     29  C   LIG    1        3.198  -5.558   2.052  0.00  0.00    +0.045 A 
ATOM     30  C   LIG    1        4.328  -5.679   2.893  0.00  0.00    +0.041 A 
ATOM     31  C   LIG    1        5.279  -4.873   2.386  0.00  0.00    +0.195 A 
ATOM     32  O   LIG    1        4.789  -4.279   1.286  0.00  0.00    -0.467 OA
ENDBRANCH   1  28
TORSDOF 5
