REMARK  Name = ZINC07052275
REMARK                            x       y       z     vdW  Elec       q    Type
REMARK                         _______ _______ _______ _____ _____    ______ ____
ROOT
ATOM      1  N   LIG    1        2.580  -0.816  -6.143  0.00  0.00    -0.216 N 
ATOM      2  H   LIG    1        2.049  -0.010  -5.948  0.00  0.00    +0.174 HD
ENDROOT
BRANCH   1   3
ATOM      3  C   LIG    1        3.124  -1.004  -7.416  0.00  0.00    +0.048 A 
ATOM      4  C   LIG    1        3.869  -2.143  -7.694  0.00  0.00    +0.026 A 
ATOM      5  C   LIG    1        4.405  -2.325  -8.953  0.00  0.00    +0.030 A 
ATOM      6  C   LIG    1        4.203  -1.375  -9.937  0.00  0.00    +0.105 A 
ATOM      7  C   LIG    1        3.463  -0.239  -9.663  0.00  0.00    +0.030 A 
ATOM      8  C   LIG    1        2.918  -0.053  -8.408  0.00  0.00    +0.026 A 
BRANCH   6   9
ATOM      9  S   LIG    1        4.891  -1.611 -11.542  0.00  0.00    +0.056 S 
ATOM     10  O   LIG    1        5.997  -2.488 -11.384  0.00  0.00    -0.153 OA
ATOM     11  O   LIG    1        5.018  -0.320 -12.123  0.00  0.00    -0.153 OA
BRANCH   9  12
ATOM     12  N   LIG    1        3.765  -2.426 -12.442  0.00  0.00    -0.204 NA
ATOM     13  H   LIG    1        3.955  -2.654 -13.365  0.00  0.00    +0.144 HD
ATOM     14  H   LIG    1        2.915  -2.675 -12.046  0.00  0.00    +0.144 HD
ENDBRANCH   9  12
ENDBRANCH   6   9
ENDBRANCH   1   3
BRANCH   1  15
ATOM     15  S   LIG    1        2.826  -1.950  -4.962  0.00  0.00    +0.072 S 
ATOM     16  O   LIG    1        2.148  -3.127  -5.380  0.00  0.00    -0.150 OA
ATOM     17  O   LIG    1        4.217  -1.937  -4.669  0.00  0.00    -0.150 OA
BRANCH  15  21
ATOM     18  C   LIG    1        0.707  -0.490  -1.238  0.00  0.00    -0.042 A 
ATOM     19  C   LIG    1        0.036  -1.284  -2.148  0.00  0.00    +0.006 A 
ATOM     20  C   LIG    1        0.683  -1.730  -3.286  0.00  0.00    +0.029 A 
ATOM     21  C   LIG    1        2.001  -1.381  -3.513  0.00  0.00    +0.109 A 
ATOM     22  C   LIG    1        2.672  -0.586  -2.603  0.00  0.00    +0.029 A 
ATOM     23  C   LIG    1        2.024  -0.137  -1.467  0.00  0.00    +0.006 A 
BRANCH  18  25
ATOM     24  C   LIG    1       -0.019   1.526   0.010  0.00  0.00    +0.015 C 
ATOM     25  C   LIG    1        0.002  -0.004   0.002  0.00  0.00    -0.013 C 
ATOM     26  C   LIG    1       -1.433  -0.534   0.013  0.00  0.00    +0.015 C 
ATOM     27  C   LIG    1        0.742  -0.511   1.242  0.00  0.00    +0.015 C 
ENDBRANCH  18  25
ENDBRANCH  15  21
ENDBRANCH   1  15
TORSDOF 6
