REMARK  Name = ZINC06865143
REMARK                            x       y       z     vdW  Elec       q    Type
REMARK                         _______ _______ _______ _____ _____    ______ ____
ROOT
ATOM      1  C   LIG    1        2.579   4.029   0.005  0.00  0.00    +0.050 A 
ATOM      2  C   LIG    1        2.704   5.407   0.006  0.00  0.00    +0.116 A 
ATOM      3  N   LIG    1        1.613   6.156   0.020  0.00  0.00    -0.223 NA
ATOM      4  C   LIG    1        0.406   5.606   0.028  0.00  0.00    +0.213 A 
ATOM      5  N   LIG    1        0.241   4.293   0.022  0.00  0.00    -0.213 NA
ATOM      6  C   LIG    1        1.294   3.477   0.008  0.00  0.00    +0.101 A 
ENDROOT
BRANCH   6   7
ATOM      7  C   LIG    1        1.107   2.011   0.002  0.00  0.00    +0.127 A 
ATOM      8  N   LIG    1       -0.016   1.306   0.009  0.00  0.00    -0.246 NA
ATOM      9  C   LIG    1        0.002  -0.004   0.002  0.00  0.00    +0.119 A 
ATOM     10  C   LIG    1        1.192  -0.666  -0.013  0.00  0.00    +0.067 A 
ATOM     11  S   LIG    1        2.334   0.710  -0.016  0.00  0.00    -0.074 S 
ENDBRANCH   6   7
BRANCH   4  12
ATOM     12  N   LIG    1       -0.708   6.426   0.042  0.00  0.00    -0.327 N 
ATOM     13  H   LIG    1       -0.601   7.391   0.046  0.00  0.00    +0.145 HD
ATOM     14  H   LIG    1       -1.597   6.037   0.048  0.00  0.00    +0.145 HD
ENDBRANCH   4  12
TORSDOF 2
