REMARK  Name = ZINC06119296
REMARK                            x       y       z     vdW  Elec       q    Type
REMARK                         _______ _______ _______ _____ _____    ______ ____
ROOT
ATOM      1  C   LIG    1       -0.319  -0.029   3.168  0.00  0.00    +0.201 A 
ATOM      2  N   LIG    1        0.520  -0.153   4.156  0.00  0.00    -0.229 NA
ATOM      3  C   LIG    1        1.390   0.884   4.132  0.00  0.00    +0.172 A 
ATOM      4  C   LIG    1        2.527   1.290   4.964  0.00  0.00    +0.280 A 
ATOM      5  O   LIG    1        2.865   0.622   5.928  0.00  0.00    -0.265 OA
ATOM      6  N   LIG    1        3.188   2.413   4.643  0.00  0.00    -0.293 N 
ATOM      7  C   LIG    1        2.835   3.143   3.607  0.00  0.00    +0.195 A 
ATOM      8  N   LIG    1        1.791   2.814   2.803  0.00  0.00    -0.196 NA
ATOM      9  H   LIG    1        3.966   2.701   5.202  0.00  0.00    +0.172 HD
ATOM     10  C   LIG    1        1.052   1.685   3.048  0.00  0.00    +0.169 A 
ATOM     11  N   LIG    1       -0.020   1.094   2.454  0.00  0.00    -0.315 N 
ENDROOT
BRANCH   7  12
ATOM     12  N   LIG    1        3.548   4.279   3.328  0.00  0.00    -0.329 N 
ATOM     13  H   LIG    1        3.946   4.206   2.413  0.00  0.00    +0.145 HD
ATOM     14  H   LIG    1        4.297   4.531   3.889  0.00  0.00    +0.145 HD
ENDBRANCH   7  12
BRANCH  11  15
ATOM     15  C   LIG    1       -0.729   1.579   1.267  0.00  0.00    +0.125 C 
BRANCH  15  16
ATOM     16  C   LIG    1       -0.013   1.086   0.008  0.00  0.00    +0.024 C 
BRANCH  16  17
ATOM     17  C   LIG    1       -0.753   1.593  -1.232  0.00  0.00    +0.029 C 
BRANCH  17  18
ATOM     18  C   LIG    1       -0.037   1.099  -2.490  0.00  0.00    +0.156 C 
BRANCH  18  19
ATOM     19  O   LIG    1       -0.728   1.573  -3.648  0.00  0.00    -0.395 OA
ATOM     20  H   LIG    1       -0.328   1.297  -4.484  0.00  0.00    +0.209 HD
ENDBRANCH  18  19
ENDBRANCH  17  18
ENDBRANCH  16  17
ENDBRANCH  15  16
ENDBRANCH  11  15
TORSDOF 6
