REMARK  Name = ZINC06658152
REMARK                            x       y       z     vdW  Elec       q    Type
REMARK                         _______ _______ _______ _____ _____    ______ ____
ROOT
ATOM      1  CA  LIG    1        1.235   3.094   0.007  0.00  0.00    +0.066 C 
ENDROOT
BRANCH   1   8
ATOM      2  C   LIG    1        2.024   3.618  -2.310  0.00  0.00    +0.004 A 
ATOM      3  C   LIG    1        1.803   4.089  -3.590  0.00  0.00    +0.020 A 
ATOM      4  C   LIG    1        0.554   4.567  -3.945  0.00  0.00    +0.041 A 
ATOM      5 CL   LIG    1        0.277   5.166  -5.551  0.00  0.00    -0.084 Cl
ATOM      6  C   LIG    1       -0.475   4.567  -3.020  0.00  0.00    +0.020 A 
ATOM      7  C   LIG    1       -0.254   4.090  -1.741  0.00  0.00    +0.004 A 
ATOM      8  C   LIG    1        0.995   3.613  -1.387  0.00  0.00    -0.051 A 
ENDBRANCH   1   8
BRANCH   1   9
ATOM      9  N   LIG    1        2.559   3.519   0.493  0.00  0.00    +0.390 N 
ATOM     10  H1  LIG    1        2.717   3.128   1.429  0.00  0.00    -0.088 HD
ATOM     11  H2  LIG    1        2.602   4.536   0.546  0.00  0.00    -0.088 HD
ATOM     12  H3  LIG    1        3.287   3.182  -0.135  0.00  0.00    -0.088 HD
ENDBRANCH   1   9
BRANCH   1  13
ATOM     13  C   LIG    1        1.177   1.588  -0.001  0.00  0.00    +0.294 C 
ATOM     14  O   LIG    1        2.199   0.944  -0.014  0.00  0.00    -0.253 OA
BRANCH  13  15
ATOM     15  OXT LIG    1       -0.011   0.963   0.007  0.00  0.00    -0.482 OA
ATOM     16  HXT LIG    1       -0.804   1.462   0.018  0.00  0.00    +0.295 HD
ENDBRANCH  13  15
ENDBRANCH   1  13
TORSDOF 4
