REMARK  Name = ZINC06525297
REMARK                            x       y       z     vdW  Elec       q    Type
REMARK                         _______ _______ _______ _____ _____    ______ ____
ROOT
ATOM      1  C   LIG    1       -1.262  -0.760   0.011  0.00  0.00    +0.181 A 
ATOM      2  C   LIG    1       -2.458  -0.076   0.126  0.00  0.00    +0.203 A 
ATOM      3  C   LIG    1       -3.666  -0.786   0.135  0.00  0.00    +0.177 A 
ATOM      4  C   LIG    1       -3.618  -2.193   0.024  0.00  0.00    +0.108 A 
ATOM      5  C   LIG    1       -4.803  -2.957   0.027  0.00  0.00    +0.135 A 
ATOM      6  C   LIG    1       -4.736  -4.317  -0.081  0.00  0.00    +0.101 A 
ATOM      7  C   LIG    1       -3.493  -4.958  -0.194  0.00  0.00    +0.227 A 
ATOM      8  C   LIG    1       -2.308  -4.211  -0.199  0.00  0.00    +0.208 A 
ATOM      9  O   LIG    1       -3.439  -6.289  -0.299  0.00  0.00    -0.284 OA
ATOM     10  C   LIG    1       -2.363  -2.833  -0.090  0.00  0.00    +0.188 A 
ATOM     11  O   LIG    1       -1.229  -2.099  -0.099  0.00  0.00    -0.447 OA
ENDROOT
BRANCH   1  17
ATOM     12  C   LIG    1        0.139   1.125  -0.812  0.00  0.00    +0.015 A 
ATOM     13  C   LIG    1        1.323   1.830  -0.818  0.00  0.00    +0.050 A 
ATOM     14  C   LIG    1        2.381   1.424  -0.018  0.00  0.00    +0.158 A 
ATOM     15  C   LIG    1        2.252   0.299   0.797  0.00  0.00    +0.159 A 
ATOM     16  C   LIG    1        1.070  -0.414   0.808  0.00  0.00    +0.060 A 
ATOM     17  C   LIG    1        0.002  -0.004   0.002  0.00  0.00    +0.025 A 
BRANCH  14  18
ATOM     18  O   LIG    1        3.546   2.123  -0.028  0.00  0.00    -0.503 OA
ATOM     19  H   LIG    1        3.583   2.835   0.625  0.00  0.00    +0.292 HD
ENDBRANCH  14  18
BRANCH  15  20
ATOM     20  O   LIG    1        3.292  -0.096   1.579  0.00  0.00    -0.503 OA
ATOM     21  H   LIG    1        3.292   0.299   2.462  0.00  0.00    +0.292 HD
ENDBRANCH  15  20
ENDBRANCH   1  17
BRANCH   2  22
ATOM     22  O   LIG    1       -2.463   1.280   0.230  0.00  0.00    -0.501 OA
ATOM     23  H   LIG    1       -3.347   1.666   0.306  0.00  0.00    +0.292 HD
ENDBRANCH   2  22
BRANCH   3  24
ATOM     24  O   LIG    1       -4.848  -0.140   0.246  0.00  0.00    -0.503 OA
ATOM     25  H   LIG    1       -4.867   0.794   0.319  0.00  0.00    +0.292 HD
ENDBRANCH   3  24
BRANCH   5  26
ATOM     26  O   LIG    1       -6.008  -2.343   0.138  0.00  0.00    -0.506 OA
ATOM     27  H   LIG    1       -6.761  -2.950   0.131  0.00  0.00    +0.292 HD
ENDBRANCH   5  26
BRANCH   8  28
ATOM     28  O   LIG    1       -1.104  -4.840  -0.309  0.00  0.00    -0.501 OA
ATOM     29  H   LIG    1       -1.168  -5.802  -0.379  0.00  0.00    +0.292 HD
ENDBRANCH   8  28
TORSDOF 7
