REMARK  Name = ZINC06734508
REMARK                            x       y       z     vdW  Elec       q    Type
REMARK                         _______ _______ _______ _____ _____    ______ ____
ROOT
ATOM      1  C   LIG    1       -0.766   5.301  -2.064  0.00  0.00    +0.190 A 
ATOM      2  C   LIG    1       -0.525   6.219  -3.063  0.00  0.00    +0.055 A 
ATOM      3  C   LIG    1       -0.903   7.468  -2.562  0.00  0.00    +0.050 A 
ATOM      4  C   LIG    1       -1.356   7.271  -1.290  0.00  0.00    +0.136 A 
ATOM      5  O   LIG    1       -1.275   5.961  -1.003  0.00  0.00    -0.450 OA
ENDROOT
BRANCH   1  12
ATOM      6  C   LIG    1        0.895   1.077   2.295  0.00  0.00    -0.096 C 
ATOM      7  N   LIG    1        0.030   1.650   1.243  0.00  0.00    +0.380 N 
ATOM      8  H   LIG    1       -0.942   1.370   1.421  0.00  0.00    -0.082 HD
ATOM      9  C   LIG    1        0.116   3.126   1.268  0.00  0.00    -0.060 C 
ATOM     10  C   LIG    1       -0.902   3.695   0.274  0.00  0.00    +0.089 C 
ATOM     11  N   LIG    1       -0.656   3.091  -1.044  0.00  0.00    -0.299 N 
ATOM     12  C   LIG    1       -0.519   3.859  -2.143  0.00  0.00    +0.282 C 
ATOM     13  O   LIG    1       -0.190   3.355  -3.201  0.00  0.00    -0.267 OA
ATOM     14  C   LIG    1       -0.564   1.625  -1.132  0.00  0.00    +0.089 C 
ATOM     15  C   LIG    1        0.441   1.138  -0.082  0.00  0.00    -0.060 C 
ENDBRANCH   1  12
BRANCH   4  16
ATOM     16  C   LIG    1       -1.859   8.321  -0.382  0.00  0.00    +0.017 A 
ATOM     17  C   LIG    1       -1.894   9.653  -0.802  0.00  0.00    +0.013 A 
ATOM     18  C   LIG    1       -2.370  10.629   0.048  0.00  0.00    +0.021 A 
ATOM     19  C   LIG    1       -2.803  10.292   1.320  0.00  0.00    +0.041 A 
ATOM     20 CL   LIG    1       -3.395  11.527   2.387  0.00  0.00    -0.084 Cl
ATOM     21  C   LIG    1       -2.766   8.974   1.744  0.00  0.00    +0.021 A 
ATOM     22  C   LIG    1       -2.297   7.988   0.902  0.00  0.00    +0.013 A 
ENDBRANCH   4  16
TORSDOF 2
