REMARK  Name = ZINC08183772
REMARK                            x       y       z     vdW  Elec       q    Type
REMARK                         _______ _______ _______ _____ _____    ______ ____
ROOT
ATOM      1  C   LIG    1       -0.742   1.585  -1.213  0.00  0.00    +0.233 C 
ATOM      2  N   LIG    1       -0.895   0.779  -2.282  0.00  0.00    -0.300 N 
ATOM      3  C   LIG    1       -0.450  -0.620  -2.235  0.00  0.00    +0.108 C 
ATOM      4  C   LIG    1        0.479  -0.886  -3.418  0.00  0.00    +0.023 C 
ATOM      5  C   LIG    1       -0.227  -0.494  -4.718  0.00  0.00    -0.004 C 
ATOM      6  C   LIG    1       -0.560   0.999  -4.689  0.00  0.00    +0.023 C 
ATOM      7  C   LIG    1       -1.506   1.285  -3.519  0.00  0.00    +0.108 C 
ATOM      8  O   LIG    1       -1.180   2.716  -1.237  0.00  0.00    -0.274 OA
ENDROOT
BRANCH   1  10
ATOM      9  C   LIG    1       -0.793   1.510   1.265  0.00  0.00    +0.034 C 
ATOM     10  C   LIG    1       -0.025   1.081   0.013  0.00  0.00    +0.163 C 
ATOM     11 CL   LIG    1        1.639   1.773   0.063  0.00  0.00    -0.112 Cl
ENDBRANCH   1  10
BRANCH   5  12
ATOM     12  C   LIG    1        0.691  -0.789  -5.906  0.00  0.00    +0.038 C 
BRANCH  12  13
ATOM     13  C   LIG    1        0.919  -2.276  -6.007  0.00  0.00    -0.047 A 
ATOM     14  C   LIG    1        1.983  -2.858  -5.344  0.00  0.00    +0.003 A 
ATOM     15  C   LIG    1        2.190  -4.222  -5.433  0.00  0.00    +0.000 A 
ATOM     16  C   LIG    1        1.339  -5.002  -6.193  0.00  0.00    +0.000 A 
ATOM     17  C   LIG    1        0.278  -4.419  -6.860  0.00  0.00    +0.000 A 
ATOM     18  C   LIG    1        0.068  -3.055  -6.767  0.00  0.00    +0.003 A 
ENDBRANCH  12  13
ENDBRANCH   5  12
TORSDOF 3
