REMARK  Name = ZINC06864978
REMARK                            x       y       z     vdW  Elec       q    Type
REMARK                         _______ _______ _______ _____ _____    ______ ____
ROOT
ATOM      1  S   LIG    1        5.175   0.292  -0.047  0.00  0.00    +0.095 S 
ATOM      2  O   LIG    1        4.969   1.185  -1.133  0.00  0.00    -0.148 OA
ATOM      3  O   LIG    1        6.298  -0.577   0.022  0.00  0.00    -0.148 OA
ENDROOT
BRANCH   1  12
ATOM      4  C   LIG    1       -0.087   0.944   0.072  0.00  0.00    +0.001 A 
ATOM      5  C   LIG    1        1.035   1.768   0.000  0.00  0.00    +0.001 A 
ATOM      6  C   LIG    1        2.290   1.243  -0.010  0.00  0.00    +0.010 A 
ATOM      7  C   LIG    1        2.462  -0.151   0.052  0.00  0.00    +0.009 A 
ATOM      8  C   LIG    1        1.321  -0.989   0.125  0.00  0.00    -0.016 A 
ATOM      9  C   LIG    1        1.492  -2.382   0.188  0.00  0.00    +0.008 A 
ATOM     10  C   LIG    1        2.748  -2.907   0.177  0.00  0.00    +0.003 A 
ATOM     11  C   LIG    1        3.869  -2.083   0.106  0.00  0.00    +0.029 A 
ATOM     12  C   LIG    1        3.742  -0.730   0.043  0.00  0.00    +0.119 A 
ATOM     13  C   LIG    1        0.040  -0.410   0.133  0.00  0.00    +0.008 A 
ENDBRANCH   1  12
BRANCH   1  14
ATOM     14  N   LIG    1        5.206   1.216   1.327  0.00  0.00    -0.108 N 
ATOM     15  H   LIG    1        5.190   2.183   1.261  0.00  0.00    +0.211 HD
BRANCH  14  16
ATOM     16  N   LIG    1        5.254   0.600   2.584  0.00  0.00    -0.173 N 
ATOM     17  H   LIG    1        5.346  -0.364   2.649  0.00  0.00    +0.289 HD
ATOM     18  C   LIG    1        5.177   1.319   3.663  0.00  0.00    +0.362 C 
BRANCH  18  19
ATOM     19  N   LIG    1        5.226   0.708   4.909  0.00  0.00    -0.290 N 
ATOM     20  H   LIG    1        5.168   1.245   5.715  0.00  0.00    +0.255 HD
ATOM     21  H   LIG    1        5.317  -0.255   4.974  0.00  0.00    +0.255 HD
ENDBRANCH  18  19
BRANCH  18  22
ATOM     22  N   LIG    1        5.046   2.697   3.570  0.00  0.00    -0.290 N 
ATOM     23  H   LIG    1        4.989   3.234   4.376  0.00  0.00    +0.255 HD
ATOM     24  H   LIG    1        5.013   3.124   2.700  0.00  0.00    +0.255 HD
ENDBRANCH  18  22
ENDBRANCH  14  16
ENDBRANCH   1  14
TORSDOF 5
