REMARK  Name = ZINC08143640
REMARK                            x       y       z     vdW  Elec       q    Type
REMARK                         _______ _______ _______ _____ _____    ______ ____
ROOT
ATOM      1  C   LIG    1       -2.381   5.056   7.209  0.00  0.00    +0.005 C 
ATOM      2  C   LIG    1       -1.337   4.645   6.170  0.00  0.00    -0.031 C 
ATOM      3  C   LIG    1       -0.461   3.528   6.737  0.00  0.00    +0.002 C 
ATOM      4  C   LIG    1        0.537   3.053   5.671  0.00  0.00    +0.016 C 
ATOM      5  C   LIG    1       -0.216   2.627   4.416  0.00  0.00    +0.040 C 
ATOM      6  N   LIG    1       -1.025   3.754   3.915  0.00  0.00    +0.399 N 
ATOM      7  H   LIG    1       -0.411   4.557   3.734  0.00  0.00    -0.082 HD
ATOM      8  H   LIG    1       -1.491   3.476   3.044  0.00  0.00    -0.082 HD
ATOM      9  C   LIG    1        0.742   2.155   3.305  0.00  0.00    +0.006 C 
ATOM     10  C   LIG    1        2.007   1.503   3.897  0.00  0.00    +0.009 C 
ATOM     11  C   LIG    1       -0.065   1.086   2.546  0.00  0.00    +0.028 C 
ATOM     12  C   LIG    1       -1.231   0.735   3.517  0.00  0.00    +0.121 C 
ATOM     13  C   LIG    1       -2.531   1.156   2.782  0.00  0.00    +0.036 C 
ATOM     14  C   LIG    1       -2.135   0.926   1.319  0.00  0.00    +0.001 C 
ATOM     15  C   LIG    1       -3.008   1.558   0.263  0.00  0.00    -0.004 C 
ATOM     16  C   LIG    1       -4.417   0.943   0.305  0.00  0.00    +0.004 C 
ATOM     17  C   LIG    1       -5.273   1.593  -0.784  0.00  0.00    +0.004 C 
ATOM     18  C   LIG    1       -4.640   1.357  -2.152  0.00  0.00    -0.002 C 
ATOM     19  C   LIG    1       -3.217   1.915  -2.205  0.00  0.00    -0.026 C 
ATOM     20  C   LIG    1       -3.222   3.429  -2.003  0.00  0.00    +0.012 C 
ATOM     21  C   LIG    1       -2.607   1.589  -3.572  0.00  0.00    +0.010 C 
ATOM     22  C   LIG    1       -3.460   2.180  -4.692  0.00  0.00    +0.032 C 
ATOM     23  C   LIG    1       -4.890   1.645  -4.615  0.00  0.00    +0.115 C 
ATOM     24  C   LIG    1       -5.499   1.976  -3.251  0.00  0.00    +0.035 C 
ATOM     25  C   LIG    1       -2.392   1.240  -1.105  0.00  0.00    -0.001 C 
ATOM     26  C   LIG    1       -0.921   1.598  -1.210  0.00  0.00    +0.005 C 
ATOM     27  C   LIG    1       -0.089   1.080  -0.029  0.00  0.00    +0.007 C 
ATOM     28  C   LIG    1       -0.723   1.574   1.264  0.00  0.00    -0.023 C 
ATOM     29  C   LIG    1       -0.829   3.093   1.209  0.00  0.00    +0.012 C 
ATOM     30  O   LIG    1       -1.058   1.503   4.705  0.00  0.00    -0.388 OA
ATOM     31  C   LIG    1       -2.045   4.137   4.912  0.00  0.00    -0.075 C 
ENDROOT
BRANCH  23  32
ATOM     32  O   LIG    1       -5.678   2.248  -5.644  0.00  0.00    -0.392 OA
ATOM     33  H   LIG    1       -5.351   2.081  -6.538  0.00  0.00    +0.210 HD
ENDBRANCH  23  32
TORSDOF 1
