REMARK  Name = ZINC06364594
REMARK                            x       y       z     vdW  Elec       q    Type
REMARK                         _______ _______ _______ _____ _____    ______ ____
ROOT
ATOM      1  CA  LEU A  1       -2.173   1.487   1.273  0.00  0.00    -0.011 C 
ENDROOT
BRANCH   1   2
ATOM      2  N   LEU A  1       -2.191   0.033   1.508  0.00  0.00    +0.384 N 
ATOM      3  H1  LEU A  1       -3.163  -0.279   1.623  0.00  0.00    -0.089 HD
ATOM      4  H2  LEU A  1       -1.668  -0.191   2.353  0.00  0.00    -0.089 HD
ATOM      5  H3  LEU A  1       -1.778  -0.455   0.714  0.00  0.00    -0.089 HD
ENDBRANCH   1   2
BRANCH   1   6
ATOM      6  C   LEU A  1       -2.894   2.174   2.404  0.00  0.00    +0.207 C 
ATOM      7  O   LEU A  1       -3.354   1.522   3.311  0.00  0.00    -0.303 OA
ENDBRANCH   1   6
BRANCH   1   8
ATOM      8  CB  LEU A  1       -0.733   1.999   1.200  0.00  0.00    -0.006 C 
BRANCH   8  10
ATOM      9  CD1 LEU A  1        1.442   1.784  -0.010  0.00  0.00    +0.007 C 
ATOM     10  CG  LEU A  1       -0.035   1.386  -0.015  0.00  0.00    -0.018 C 
ATOM     11  CD2 LEU A  1       -0.697   1.898  -1.296  0.00  0.00    +0.007 C 
ENDBRANCH   8  10
ENDBRANCH   1   8
TORSDOF 4
