REMARK  Name = ZINC06745792
REMARK                            x       y       z     vdW  Elec       q    Type
REMARK                         _______ _______ _______ _____ _____    ______ ____
ROOT
ATOM      1  C   LIG    1        6.940   0.071   2.191  0.00  0.00    +0.165 A 
ATOM      2  C   LIG    1        8.336   0.146   2.165  0.00  0.00    +0.181 A 
ATOM      3  F   LIG    1        9.019  -0.097   1.025  0.00  0.00    -0.200 F 
ATOM      4  C   LIG    1        9.000   0.475   3.332  0.00  0.00    +0.156 A 
ATOM      5  N   LIG    1        8.300   0.707   4.433  0.00  0.00    -0.220 NA
ATOM      6  C   LIG    1        6.978   0.629   4.428  0.00  0.00    +0.221 A 
ATOM      7  N   LIG    1        6.303   0.323   3.330  0.00  0.00    -0.196 NA
ENDROOT
BRANCH   1   8
ATOM      8  N   LIG    1        6.230  -0.255   1.044  0.00  0.00    -0.282 N 
ATOM      9  H   LIG    1        6.703  -0.506   0.236  0.00  0.00    +0.155 HD
BRANCH   8  20
ATOM     10  C   LIG    1        0.250  -2.079   2.471  0.00  0.00    +0.065 C 
ATOM     11  C   LIG    1        0.165  -0.554   2.390  0.00  0.00    +0.180 C 
ATOM     12  C   LIG    1       -1.302  -0.121   2.435  0.00  0.00    +0.065 C 
ATOM     13  C   LIG    1        0.903   0.052   3.557  0.00  0.00    +0.262 C 
ATOM     14  N   LIG    1        2.222   0.322   3.450  0.00  0.00    -0.264 N 
ATOM     15  H   LIG    1        2.710   0.691   4.203  0.00  0.00    +0.156 HD
ATOM     16  C   LIG    1        2.875   0.063   2.242  0.00  0.00    +0.169 A 
ATOM     17  C   LIG    1        2.113  -0.151   1.094  0.00  0.00    +0.162 A 
ATOM     18  C   LIG    1        2.751  -0.407  -0.110  0.00  0.00    +0.052 A 
ATOM     19  C   LIG    1        4.138  -0.441  -0.126  0.00  0.00    +0.047 A 
ATOM     20  C   LIG    1        4.836  -0.221   1.054  0.00  0.00    +0.126 A 
ATOM     21  N   LIG    1        4.196   0.022   2.188  0.00  0.00    -0.213 NA
ATOM     22  O   LIG    1        0.314   0.297   4.588  0.00  0.00    -0.271 OA
ATOM     23  O   LIG    1        0.756  -0.108   1.166  0.00  0.00    -0.474 OA
ENDBRANCH   8  20
ENDBRANCH   1   8
BRANCH   6  24
ATOM     24  N   LIG    1        6.282   0.879   5.601  0.00  0.00    -0.283 N 
ATOM     25  H   LIG    1        5.321   0.752   5.631  0.00  0.00    +0.155 HD
BRANCH  24  26
ATOM     26  C   LIG    1        6.967   1.316   6.741  0.00  0.00    +0.041 A 
ATOM     27  C   LIG    1        8.084   2.130   6.610  0.00  0.00    +0.073 A 
ATOM     28  C   LIG    1        8.762   2.563   7.739  0.00  0.00    +0.167 A 
ATOM     29  C   LIG    1        8.324   2.182   9.002  0.00  0.00    +0.204 A 
ATOM     30  C   LIG    1        7.206   1.367   9.132  0.00  0.00    +0.167 A 
ATOM     31  C   LIG    1        6.526   0.939   8.002  0.00  0.00    +0.073 A 
BRANCH  28  32
ATOM     32  O   LIG    1        9.857   3.360   7.611  0.00  0.00    -0.491 OA
ATOM     33  C   LIG    1       10.251   3.712   6.283  0.00  0.00    +0.277 C 
ENDBRANCH  28  32
BRANCH  29  34
ATOM     34  O   LIG    1        8.990   2.607  10.111  0.00  0.00    -0.488 OA
ATOM     35  C   LIG    1        8.562   3.840  10.692  0.00  0.00    +0.277 C 
ENDBRANCH  29  34
BRANCH  30  36
ATOM     36  O   LIG    1        6.776   0.993  10.367  0.00  0.00    -0.491 OA
ATOM     37  C   LIG    1        5.621   0.155  10.425  0.00  0.00    +0.277 C 
ENDBRANCH  30  36
ENDBRANCH  24  26
ENDBRANCH   6  24
TORSDOF 7
