REMARK  Name = ZINC06067808
REMARK                            x       y       z     vdW  Elec       q    Type
REMARK                         _______ _______ _______ _____ _____    ______ ____
ROOT
ATOM      1  C   LIG    1       -0.250  -4.393   1.499  0.00  0.00    +0.016 C 
ATOM      2  C   LIG    1       -0.030  -4.011   0.035  0.00  0.00    -0.003 C 
ATOM      3  C   LIG    1       -1.194  -4.546  -0.794  0.00  0.00    +0.014 C 
ATOM      4  C   LIG    1       -1.161  -6.075  -0.789  0.00  0.00    +0.033 C 
ATOM      5  C   LIG    1        0.136  -6.584  -1.401  0.00  0.00    +0.123 C 
ATOM      6  C   LIG    1        1.373  -6.030  -0.691  0.00  0.00    +0.021 C 
ATOM      7  C   LIG    1        1.604  -6.776   0.623  0.00  0.00    +0.016 C 
ATOM      8  C   LIG    1       -0.004  -2.498  -0.015  0.00  0.00    -0.035 A 
ATOM      9  C   LIG    1       -1.209  -1.819  -0.049  0.00  0.00    +0.050 A 
ATOM     10  C   LIG    1       -1.233  -0.434  -0.094  0.00  0.00    +0.122 A 
ATOM     11  C   LIG    1       -0.038   0.270  -0.107  0.00  0.00    +0.019 A 
ATOM     12  C   LIG    1        1.159  -0.411  -0.070  0.00  0.00    +0.013 A 
ATOM     13  C   LIG    1        1.186  -1.802  -0.023  0.00  0.00    -0.043 A 
ATOM     14  C   LIG    1        2.537  -2.462   0.019  0.00  0.00    +0.036 C 
ATOM     15  C   LIG    1        2.436  -3.959   0.321  0.00  0.00    +0.010 C 
ATOM     16  C   LIG    1        1.288  -4.532  -0.507  0.00  0.00    +0.010 C 
ENDROOT
BRANCH   5  17
ATOM     17  O   LIG    1        0.186  -6.220  -2.784  0.00  0.00    -0.391 OA
ATOM     18  H   LIG    1       -0.567  -6.536  -3.302  0.00  0.00    +0.210 HD
ENDBRANCH   5  17
BRANCH  10  19
ATOM     19  O   LIG    1       -2.419   0.228  -0.124  0.00  0.00    -0.506 OA
ATOM     20  H   LIG    1       -2.755   0.393  -1.016  0.00  0.00    +0.292 HD
ENDBRANCH  10  19
BRANCH   6  21
ATOM     21  C   LIG    1        2.582  -6.336  -1.608  0.00  0.00    +0.165 C 
BRANCH  21  22
ATOM     22  O   LIG    1        2.689  -7.748  -1.800  0.00  0.00    -0.394 OA
ATOM     23  H   LIG    1        3.427  -8.013  -2.367  0.00  0.00    +0.209 HD
ENDBRANCH  21  22
ENDBRANCH   6  21
BRANCH  11  24
ATOM     24  C   LIG    1       -0.049   1.776  -0.159  0.00  0.00    +0.194 C 
BRANCH  24  25
ATOM     25  O   LIG    1        1.295   2.263  -0.161  0.00  0.00    -0.390 OA
ATOM     26  H   LIG    1        1.364   3.227  -0.193  0.00  0.00    +0.210 HD
ENDBRANCH  24  25
ENDBRANCH  11  24
TORSDOF 6
