REMARK  Name = ZINC06812969
REMARK                            x       y       z     vdW  Elec       q    Type
REMARK                         _______ _______ _______ _____ _____    ______ ____
ROOT
ATOM      1  C   LIG    1        0.538   1.431   5.389  0.00  0.00    +0.071 C 
ATOM      2  C   LIG    1        1.019   2.694   5.458  0.00  0.00    +0.188 C 
ATOM      3  C   LIG    1        0.478   3.482   4.330  0.00  0.00    +0.282 C 
ATOM      4  N   LIG    1       -0.328   2.712   3.577  0.00  0.00    -0.282 N 
ATOM      5  O   LIG    1        0.725   4.652   4.115  0.00  0.00    -0.267 OA
ATOM      6  C   LIG    1       -0.362   1.373   4.176  0.00  0.00    +0.145 C 
ENDROOT
BRANCH   6   7
ATOM      7  C   LIG    1        0.159   0.353   3.197  0.00  0.00    -0.022 A 
ATOM      8  C   LIG    1       -0.661  -0.673   2.765  0.00  0.00    +0.006 A 
ATOM      9  C   LIG    1       -0.184  -1.605   1.862  0.00  0.00    +0.004 A 
ATOM     10  C   LIG    1        1.115  -1.518   1.400  0.00  0.00    -0.045 A 
ATOM     11  C   LIG    1        1.937  -0.495   1.835  0.00  0.00    +0.004 A 
ATOM     12  C   LIG    1        1.459   0.440   2.734  0.00  0.00    +0.006 A 
BRANCH  10  13
ATOM     13  C   LIG    1        1.636  -2.538   0.420  0.00  0.00    +0.013 C 
ATOM     14  C   LIG    1        0.788  -2.503  -0.852  0.00  0.00    +0.012 C 
ATOM     15  C   LIG    1        1.560  -3.932   1.046  0.00  0.00    +0.012 C 
ENDBRANCH  10  13
ENDBRANCH   6   7
BRANCH   1  16
ATOM     16  C   LIG    1        0.828   0.333   6.316  0.00  0.00    +0.195 C 
ATOM     17  O   LIG    1        1.966  -0.083   6.429  0.00  0.00    -0.287 OA
BRANCH  16  22
ATOM     18  C   LIG    1       -3.414  -2.013   9.417  0.00  0.00    +0.044 C 
ATOM     19  C   LIG    1       -2.304  -1.399   8.605  0.00  0.00    -0.050 A 
ATOM     20  C   LIG    1       -1.020  -1.909   8.696  0.00  0.00    +0.004 A 
ATOM     21  C   LIG    1        0.001  -1.352   7.955  0.00  0.00    +0.012 A 
ATOM     22  C   LIG    1       -0.262  -0.270   7.112  0.00  0.00    +0.022 A 
ATOM     23  C   LIG    1       -1.558   0.243   7.029  0.00  0.00    +0.012 A 
ATOM     24  C   LIG    1       -2.571  -0.327   7.772  0.00  0.00    +0.004 A 
ENDBRANCH  16  22
ENDBRANCH   1  16
BRANCH   2  25
ATOM     25  O   LIG    1        1.862   3.161   6.407  0.00  0.00    -0.502 OA
ATOM     26  H   LIG    1        2.159   2.593   7.091  0.00  0.00    +0.292 HD
ENDBRANCH   2  25
BRANCH   4  27
ATOM     27  C   LIG    1       -1.049   3.136   2.374  0.00  0.00    +0.137 C 
BRANCH  27  28
ATOM     28  C   LIG    1       -0.119   3.042   1.163  0.00  0.00    +0.178 C 
BRANCH  28  29
ATOM     29  O   LIG    1        0.159   1.669   0.882  0.00  0.00    -0.381 OA
ATOM     30  C   LIG    1        0.912   1.461  -0.315  0.00  0.00    +0.194 C 
ENDBRANCH  28  29
ENDBRANCH  27  28
ENDBRANCH   4  27
TORSDOF 8
