REMARK  Name = ZINC06071290
REMARK                            x       y       z     vdW  Elec       q    Type
REMARK                         _______ _______ _______ _____ _____    ______ ____
ROOT
ATOM      1  C   LIG    1       -2.479   0.930   0.019  0.00  0.00    +0.019 C 
ENDROOT
BRANCH   1   6
ATOM      2  C   LIG    1       -7.139   4.123   0.435  0.00  0.00    +0.051 C 
ATOM      3  C   LIG    1       -6.010   3.182   0.103  0.00  0.00    -0.013 A 
ATOM      4  C   LIG    1       -5.881   2.342  -0.953  0.00  0.00    +0.011 A 
ATOM      5  C   LIG    1       -4.741   1.567  -1.057  0.00  0.00    +0.012 A 
ATOM      6  C   LIG    1       -3.791   1.662  -0.095  0.00  0.00    -0.008 A 
ATOM      7  S   LIG    1       -4.494   2.886   0.999  0.00  0.00    -0.098 S 
ENDBRANCH   1   6
BRANCH   1   8
ATOM      8  C   LIG    1       -2.453   0.128   1.322  0.00  0.00    -0.077 C 
BRANCH   8   9
ATOM      9  N   LIG    1       -3.472  -0.934   1.252  0.00  0.00    +0.379 N 
ATOM     10  H   LIG    1       -3.246  -1.568   0.476  0.00  0.00    -0.090 HD
ATOM     11  H   LIG    1       -4.392  -0.526   1.091  0.00  0.00    -0.090 HD
ATOM     12  H   LIG    1       -3.484  -1.465   2.121  0.00  0.00    -0.090 HD
ENDBRANCH   8   9
ENDBRANCH   1   8
BRANCH   1  13
ATOM     13  C   LIG    1       -1.329   1.940   0.019  0.00  0.00    +0.127 C 
BRANCH  13  14
ATOM     14  C   LIG    1       -0.014   1.204   0.009  0.00  0.00    +0.305 C 
ATOM     15  O   LIG    1        0.002  -0.004   0.002  0.00  0.00    -0.251 OA
BRANCH  14  16
ATOM     16  O   LIG    1        1.139   1.891   0.001  0.00  0.00    -0.481 OA
ATOM     17  H   LIG    1        1.126   2.828   0.006  0.00  0.00    +0.295 HD
ENDBRANCH  14  16
ENDBRANCH  13  14
ENDBRANCH   1  13
TORSDOF 6
