REMARK  Name = ZINC05893340
REMARK                            x       y       z     vdW  Elec       q    Type
REMARK                         _______ _______ _______ _____ _____    ______ ____
ROOT
ATOM      1  C   LIG    1        0.498   6.037   0.041  0.00  0.00    +0.052 A 
ATOM      2  C   LIG    1       -0.829   5.668   0.166  0.00  0.00    +0.033 A 
ATOM      3  C   LIG    1       -1.821   6.651   0.242  0.00  0.00    +0.059 A 
ATOM      4  C   LIG    1       -1.461   8.007   0.190  0.00  0.00    +0.040 A 
ATOM      5  C   LIG    1       -0.125   8.363   0.065  0.00  0.00    +0.063 A 
ATOM      6  C   LIG    1        0.849   7.385  -0.004  0.00  0.00    +0.139 A 
ATOM      7  F   LIG    1        2.148   7.738  -0.120  0.00  0.00    -0.204 F 
ENDROOT
BRANCH   3   8
ATOM      8  C   LIG    1       -3.236   6.266   0.374  0.00  0.00    +0.252 C 
ATOM      9  N   LIG    1       -3.568   4.971   0.545  0.00  0.00    -0.261 N 
ATOM     10  H   LIG    1       -2.876   4.293   0.581  0.00  0.00    +0.157 HD
ATOM     11  O   LIG    1       -4.104   7.116   0.330  0.00  0.00    -0.270 OA
BRANCH   9  12
ATOM     12  C   LIG    1       -4.903   4.607   0.670  0.00  0.00    +0.165 A 
ATOM     13  N   LIG    1       -5.976   5.375   0.654  0.00  0.00    -0.233 NA
ATOM     14  C   LIG    1       -7.184   4.862   0.782  0.00  0.00    +0.120 A 
ATOM     15  C   LIG    1       -7.303   3.522   0.945  0.00  0.00    +0.068 A 
ATOM     16  S   LIG    1       -5.587   3.027   0.896  0.00  0.00    -0.061 S 
ENDBRANCH   9  12
ENDBRANCH   3   8
BRANCH   4  17
ATOM     17  N   LIG    1       -2.440   8.992   0.265  0.00  0.00    -0.357 N 
ATOM     18  H   LIG    1       -2.276   9.870  -0.115  0.00  0.00    +0.142 HD
ATOM     19  H   LIG    1       -3.288   8.801   0.696  0.00  0.00    +0.142 HD
ENDBRANCH   4  17
BRANCH   1  20
ATOM     20  S   LIG    1        1.748   4.799  -0.055  0.00  0.00    -0.049 S 
BRANCH  20  26
ATOM     21  C   LIG    1        4.042   3.237  -1.791  0.00  0.00    +0.151 C 
ATOM     22  N   LIG    1        3.096   4.169  -2.411  0.00  0.00    -0.328 N 
ATOM     23  C   LIG    1        3.034   4.507  -3.744  0.00  0.00    +0.107 A 
ATOM     24  C   LIG    1        2.030   5.391  -3.878  0.00  0.00    +0.131 A 
ATOM     25  N   LIG    1        1.477   5.589  -2.670  0.00  0.00    -0.230 NA
ATOM     26  C   LIG    1        2.111   4.863  -1.778  0.00  0.00    +0.173 A 
ENDBRANCH  20  26
ENDBRANCH   1  20
TORSDOF 5
