REMARK  Name = ZINC06239834
REMARK                            x       y       z     vdW  Elec       q    Type
REMARK                         _______ _______ _______ _____ _____    ______ ____
ROOT
ATOM      1  C   LIG    1       -0.021   1.732   0.012  0.00  0.00    +0.143 A 
ATOM      2 CL   LIG    1        0.002  -0.004   0.002  0.00  0.00    -0.074 Cl
ATOM      3  C   LIG    1       -1.209   2.409   0.021  0.00  0.00    +0.121 A 
ATOM      4  N   LIG    1       -1.202   3.783   0.033  0.00  0.00    -0.295 N 
ATOM      5  C   LIG    1       -0.038   4.458   0.025  0.00  0.00    +0.328 A 
ATOM      6  N   LIG    1        1.140   3.807   0.011  0.00  0.00    -0.274 N 
ATOM      7  H   LIG    1        1.994   4.328   0.006  0.00  0.00    +0.173 HD
ATOM      8  O   LIG    1       -0.050   5.674   0.031  0.00  0.00    -0.247 OA
ATOM      9  H   LIG    1       -2.067   4.285   0.047  0.00  0.00    +0.172 HD
ATOM     10  C   LIG    1        1.179   2.460   0.004  0.00  0.00    +0.274 A 
ATOM     11  O   LIG    1        2.250   1.877  -0.009  0.00  0.00    -0.266 OA
ENDROOT
BRANCH   3  12
ATOM     12  N   LIG    1       -2.398   1.723   0.023  0.00  0.00    -0.343 N 
ATOM     13  H   LIG    1       -3.238   2.208   0.030  0.00  0.00    +0.144 HD
ATOM     14  H   LIG    1       -2.397   0.753   0.018  0.00  0.00    +0.144 HD
ENDBRANCH   3  12
TORSDOF 1
