REMARK  Name = ZINC08019642
REMARK                            x       y       z     vdW  Elec       q    Type
REMARK                         _______ _______ _______ _____ _____    ______ ____
ROOT
ATOM      1  C   LIG    1        1.070   3.557  -0.067  0.00  0.00    +0.034 A 
ATOM      2  C   LIG    1       -0.167   4.191  -0.065  0.00  0.00    +0.025 A 
ATOM      3  C   LIG    1       -0.243   5.568  -0.157  0.00  0.00    +0.022 A 
ATOM      4  C   LIG    1        0.910   6.322  -0.264  0.00  0.00    +0.052 A 
ATOM      5 CL   LIG    1        0.808   8.051  -0.387  0.00  0.00    -0.083 Cl
ATOM      6  C   LIG    1        2.157   5.693  -0.273  0.00  0.00    +0.037 A 
ATOM      7  C   LIG    1        2.232   4.304  -0.174  0.00  0.00    +0.036 A 
ENDROOT
BRANCH   6   8
ATOM      8  C   LIG    1        3.392   6.498  -0.387  0.00  0.00    +0.141 A 
ATOM      9  N   LIG    1        4.655   5.986  -0.523  0.00  0.00    -0.338 N 
ATOM     10  C   LIG    1        5.524   7.057  -0.597  0.00  0.00    +0.066 A 
ATOM     11  C   LIG    1        6.900   7.174  -0.736  0.00  0.00    +0.028 A 
ATOM     12  C   LIG    1        7.479   8.425  -0.779  0.00  0.00    +0.002 A 
ATOM     13  C   LIG    1        6.696   9.566  -0.683  0.00  0.00    +0.002 A 
ATOM     14  C   LIG    1        5.340   9.472  -0.545  0.00  0.00    +0.030 A 
ATOM     15  C   LIG    1        4.730   8.214  -0.500  0.00  0.00    +0.089 A 
ATOM     16  H   LIG    1        4.902   5.018  -0.562  0.00  0.00    +0.167 HD
ATOM     17  N   LIG    1        3.443   7.807  -0.379  0.00  0.00    -0.228 NA
ENDBRANCH   6   8
BRANCH   1  19
ATOM     18  C   LIG    1        0.228   1.492   0.761  0.00  0.00    +0.248 C 
ATOM     19  N   LIG    1        1.141   2.163   0.032  0.00  0.00    -0.281 N 
ATOM     20  H   LIG    1        1.848   1.680  -0.425  0.00  0.00    +0.155 HD
ATOM     21  O   LIG    1       -0.603   2.102   1.405  0.00  0.00    -0.270 OA
BRANCH  18  25
ATOM     22  C   LIG    1        0.243  -2.755   0.795  0.00  0.00    +0.120 A 
ATOM     23  C   LIG    1       -0.704  -2.059   1.537  0.00  0.00    +0.046 A 
ATOM     24  C   LIG    1       -0.712  -0.682   1.529  0.00  0.00    +0.016 A 
ATOM     25  C   LIG    1        0.234   0.016   0.773  0.00  0.00    +0.037 A 
ATOM     26  C   LIG    1        1.181  -0.687   0.024  0.00  0.00    +0.016 A 
ATOM     27  C   LIG    1        1.186  -2.064   0.042  0.00  0.00    +0.046 A 
BRANCH  22  29
ATOM     28  C   LIG    1        1.249  -4.763   0.020  0.00  0.00    +0.277 C 
ATOM     29  O   LIG    1        0.248  -4.112   0.805  0.00  0.00    -0.495 OA
ENDBRANCH  22  29
ENDBRANCH  18  25
ENDBRANCH   1  19
TORSDOF 4
