REMARK  Name = ZINC08438483
REMARK                            x       y       z     vdW  Elec       q    Type
REMARK                         _______ _______ _______ _____ _____    ______ ____
ROOT
ATOM      1  C   LIG    1        1.331   1.327  -4.550  0.00  0.00    +0.136 A 
ATOM      2  N   LIG    1        0.174   1.630  -5.095  0.00  0.00    -0.233 NA
ATOM      3  C   LIG    1        0.077   2.300  -6.266  0.00  0.00    +0.080 A 
ATOM      4  C   LIG    1       -1.096   2.685  -6.955  0.00  0.00    +0.031 A 
ATOM      5  C   LIG    1       -1.026   3.361  -8.132  0.00  0.00    +0.025 A 
ATOM      6  C   LIG    1        0.197   3.700  -8.706  0.00  0.00    +0.035 A 
ATOM      7  C   LIG    1        1.372   3.338  -8.059  0.00  0.00    +0.040 A 
ATOM      8  C   LIG    1        1.304   2.656  -6.870  0.00  0.00    +0.042 A 
ATOM      9  S   LIG    1        2.495   2.015  -5.719  0.00  0.00    -0.061 S 
ENDROOT
BRANCH   6  10
ATOM     10  N   LIG    1        0.242   4.396  -9.920  0.00  0.00    -0.281 N 
ATOM     11  H   LIG    1       -0.436   5.059 -10.124  0.00  0.00    +0.155 HD
ATOM     12  C   LIG    1        1.228   4.146 -10.805  0.00  0.00    +0.248 C 
ATOM     13  O   LIG    1        2.020   3.248 -10.594  0.00  0.00    -0.270 OA
BRANCH  12  14
ATOM     14  C   LIG    1        1.345   4.962 -12.032  0.00  0.00    +0.037 A 
ATOM     15  C   LIG    1        0.433   5.989 -12.280  0.00  0.00    +0.013 A 
ATOM     16  C   LIG    1        0.551   6.751 -13.424  0.00  0.00    +0.005 A 
ATOM     17  C   LIG    1        1.564   6.491 -14.330  0.00  0.00    -0.042 A 
ATOM     18  C   LIG    1        2.468   5.471 -14.093  0.00  0.00    +0.005 A 
ATOM     19  C   LIG    1        2.364   4.705 -12.950  0.00  0.00    +0.013 A 
BRANCH  17  20
ATOM     20  C   LIG    1        1.684   7.324 -15.580  0.00  0.00    -0.013 C 
ATOM     21  C   LIG    1        3.046   8.021 -15.600  0.00  0.00    +0.015 C 
ATOM     22  C   LIG    1        0.572   8.375 -15.601  0.00  0.00    +0.015 C 
ATOM     23  C   LIG    1        1.555   6.421 -16.808  0.00  0.00    +0.015 C 
ENDBRANCH  17  20
ENDBRANCH  12  14
ENDBRANCH   6  10
BRANCH   1  24
ATOM     24  S   LIG    1        1.652   0.467  -3.046  0.00  0.00    -0.094 S 
BRANCH  24  25
ATOM     25  C   LIG    1       -0.043   0.141  -2.502  0.00  0.00    +0.112 C 
BRANCH  25  34
ATOM     26  C   LIG    1       -0.036   1.596  -0.011  0.00  0.00    +0.044 C 
ATOM     27  C   LIG    1       -0.012   0.089   0.001  0.00  0.00    -0.046 A 
ATOM     28  C   LIG    1        0.008  -0.590   1.207  0.00  0.00    +0.007 A 
ATOM     29  C   LIG    1        0.029  -1.968   1.225  0.00  0.00    -0.039 A 
ATOM     30  C   LIG    1        0.051  -2.705   2.539  0.00  0.00    +0.044 C 
ATOM     31  C   LIG    1        0.031  -2.680   0.022  0.00  0.00    +0.023 A 
ATOM     32  C   LIG    1        0.011  -1.987  -1.193  0.00  0.00    -0.036 A 
ATOM     33  C   LIG    1        0.012  -2.745  -2.495  0.00  0.00    +0.045 C 
ATOM     34  C   LIG    1       -0.015  -0.608  -1.195  0.00  0.00    -0.031 A 
BRANCH  31  35
ATOM     35  C   LIG    1        0.054  -4.152   0.033  0.00  0.00    +0.161 C 
ATOM     36  C   LIG    1       -1.236  -4.926  -0.064  0.00  0.00    +0.091 C 
ATOM     37  O   LIG    1        1.109  -4.741   0.120  0.00  0.00    -0.292 OA
ENDBRANCH  31  35
ENDBRANCH  25  34
ENDBRANCH  24  25
ENDBRANCH   1  24
TORSDOF 7
