REMARK  Name = ZINC06588862
REMARK                            x       y       z     vdW  Elec       q    Type
REMARK                         _______ _______ _______ _____ _____    ______ ____
ROOT
ATOM      1  S   LIG    1        0.101  -7.215   0.346  0.00  0.00    +0.074 S 
ATOM      2  O   LIG    1        1.341  -7.064  -0.332  0.00  0.00    -0.150 OA
ATOM      3  O   LIG    1       -1.150  -7.098  -0.319  0.00  0.00    -0.150 OA
ENDROOT
BRANCH   1   4
ATOM      4  C   LIG    1        0.126  -8.810   1.093  0.00  0.00    +0.109 A 
ATOM      5  C   LIG    1        1.333  -9.418   1.385  0.00  0.00    +0.031 A 
ATOM      6  C   LIG    1        1.353 -10.669   1.972  0.00  0.00    +0.034 A 
ATOM      7  C   LIG    1        0.166 -11.314   2.266  0.00  0.00    +0.122 A 
ATOM      8  C   LIG    1       -1.041 -10.706   1.975  0.00  0.00    +0.034 A 
ATOM      9  C   LIG    1       -1.061  -9.453   1.392  0.00  0.00    +0.031 A 
BRANCH   7  10
ATOM     10  N   LIG    1        0.187 -12.654   2.893  0.00  0.00    +0.006 N 
ATOM     11  O   LIG    1        1.243 -13.186   3.147  0.00  0.00    -0.130 OA
BRANCH  10  12
ATOM     12  O   LIG    1       -0.851 -13.218   3.151  0.00  0.00    -0.396 OA
ATOM     13  H   LIG    1       -1.669 -12.806   2.953  0.00  0.00    +0.329 HD
ENDBRANCH  10  12
ENDBRANCH   7  10
ENDBRANCH   1   4
BRANCH   1  14
ATOM     14  N   LIG    1        0.092  -6.101   1.571  0.00  0.00    -0.194 N 
ATOM     15  H   LIG    1        0.100  -6.400   2.508  0.00  0.00    +0.176 HD
BRANCH  14  23
ATOM     16  C   LIG    1       -0.018   1.503   0.010  0.00  0.00    +0.044 C 
ATOM     17  C   LIG    1        0.002  -0.004   0.002  0.00  0.00    -0.049 A 
ATOM     18  C   LIG    1        0.006  -0.698  -1.199  0.00  0.00    +0.005 A 
ATOM     19  C   LIG    1        0.024  -2.068  -1.234  0.00  0.00    +0.029 A 
ATOM     20  C   LIG    1        0.039  -2.822  -0.038  0.00  0.00    +0.080 A 
ATOM     21  C   LIG    1        0.035  -2.081   1.166  0.00  0.00    +0.041 A 
ATOM     22  S   LIG    1        0.059  -3.361   2.398  0.00  0.00    -0.051 S 
ATOM     23  C   LIG    1        0.072  -4.753   1.277  0.00  0.00    +0.179 A 
ATOM     24  N   LIG    1        0.058  -4.165   0.102  0.00  0.00    -0.224 NA
ATOM     25  C   LIG    1        0.023  -0.709   1.192  0.00  0.00    +0.020 A 
ENDBRANCH  14  23
ENDBRANCH   1  14
TORSDOF 5
