REMARK  Name = ZINC06361525
REMARK                            x       y       z     vdW  Elec       q    Type
REMARK                         _______ _______ _______ _____ _____    ______ ____
ROOT
ATOM      1  C   LIG    1       -0.711   3.124  -1.253  0.00  0.00    -0.074 C 
ATOM      2  N   LIG    1        0.689   3.589  -1.273  0.00  0.00    +0.381 N 
ATOM      3  H   LIG    1        1.163   3.203  -2.098  0.00  0.00    -0.086 HD
ATOM      4  H   LIG    1        0.704   4.615  -1.318  0.00  0.00    -0.086 HD
ATOM      5  C   LIG    1        1.396   3.146  -0.056  0.00  0.00    -0.048 C 
ATOM      6  C   LIG    1        1.423   1.617  -0.003  0.00  0.00    +0.126 C 
ATOM      7  C   LIG    1       -0.013   1.086   0.008  0.00  0.00    +0.145 C 
ATOM      8  C   LIG    1       -0.746   1.595  -1.236  0.00  0.00    +0.028 C 
ENDROOT
BRANCH   6   9
ATOM      9  O   LIG    1        2.098   1.192   1.183  0.00  0.00    -0.391 OA
ATOM     10  H   LIG    1        3.015   1.493   1.243  0.00  0.00    +0.210 HD
ENDBRANCH   6   9
BRANCH   7  11
ATOM     11  O   LIG    1       -0.684   1.548   1.182  0.00  0.00    -0.389 OA
ATOM     12  H   LIG    1       -0.271   1.264   2.009  0.00  0.00    +0.210 HD
ENDBRANCH   7  11
BRANCH   8  13
ATOM     13  C   LIG    1       -2.200   1.118  -1.203  0.00  0.00    +0.160 C 
BRANCH  13  14
ATOM     14  O   LIG    1       -2.852   1.493  -2.418  0.00  0.00    -0.395 OA
ATOM     15  H   LIG    1       -3.779   1.222  -2.466  0.00  0.00    +0.209 HD
ENDBRANCH  13  14
ENDBRANCH   8  13
TORSDOF 4
