REMARK  Name = ZINC05998778
REMARK                            x       y       z     vdW  Elec       q    Type
REMARK                         _______ _______ _______ _____ _____    ______ ____
ROOT
ATOM      1  C   LIG    1       -2.538  -4.055   0.003  0.00  0.00    +0.127 A 
ATOM      2  C   LIG    1       -1.383  -4.830  -0.013  0.00  0.00    +0.092 A 
ATOM      3  C   LIG    1       -0.142  -4.221  -0.020  0.00  0.00    +0.135 A 
ATOM      4  C   LIG    1       -0.058  -2.822  -0.013  0.00  0.00    +0.106 A 
ATOM      5  C   LIG    1       -1.225  -2.040   0.002  0.00  0.00    +0.146 A 
ATOM      6  O   LIG    1       -1.159  -0.693   0.010  0.00  0.00    -0.454 OA
ATOM      7  C   LIG    1        0.002  -0.004   0.002  0.00  0.00    +0.143 A 
ATOM      8  C   LIG    1       -0.017   1.385   0.010  0.00  0.00    +0.051 A 
ATOM      9  C   LIG    1        1.165   2.099   0.002  0.00  0.00    +0.053 A 
ATOM     10  C   LIG    1        2.388   1.444  -0.014  0.00  0.00    +0.159 A 
ATOM     11  C   LIG    1        2.433   0.056  -0.021  0.00  0.00    +0.173 A 
ATOM     12  C   LIG    1        1.237  -0.671  -0.013  0.00  0.00    +0.110 A 
ATOM     13  C   LIG    1        1.250  -2.146  -0.021  0.00  0.00    +0.207 A 
ATOM     14  O   LIG    1        2.293  -2.775  -0.035  0.00  0.00    -0.286 OA
ATOM     15  C   LIG    1       -2.461  -2.671   0.010  0.00  0.00    +0.092 A 
ENDROOT
BRANCH   1  17
ATOM     16  C   LIG    1       -3.766  -6.089   0.001  0.00  0.00    +0.277 C 
ATOM     17  O   LIG    1       -3.753  -4.660   0.010  0.00  0.00    -0.495 OA
ENDBRANCH   1  17
BRANCH   3  18
ATOM     18  O   LIG    1        0.987  -4.973  -0.035  0.00  0.00    -0.506 OA
ATOM     19  H   LIG    1        1.973  -4.486  -0.041  0.00  0.00    +0.292 HD
ENDBRANCH   3  18
BRANCH  10  20
ATOM     20  O   LIG    1        3.544   2.162  -0.022  0.00  0.00    -0.503 OA
ATOM     21  H   LIG    1        4.514   1.643  -0.035  0.00  0.00    +0.292 HD
ENDBRANCH  10  20
BRANCH  11  22
ATOM     22  O   LIG    1        3.627  -0.591  -0.036  0.00  0.00    -0.503 OA
ATOM     23  H   LIG    1        3.657  -1.690  -0.042  0.00  0.00    +0.292 HD
ENDBRANCH  11  22
TORSDOF 4
