REMARK  Name = ZINC06448351
REMARK                            x       y       z     vdW  Elec       q    Type
REMARK                         _______ _______ _______ _____ _____    ______ ____
ROOT
ATOM      1  C   LIG    1       -1.271  -0.766   0.011  0.00  0.00    +0.130 A 
ATOM      2  N   LIG    1       -2.390  -0.444   0.631  0.00  0.00    -0.153 NA
ATOM      3  N   LIG    1       -3.271  -1.350   0.399  0.00  0.00    -0.195 N 
ATOM      4  H   LIG    1       -4.191  -1.333   0.749  0.00  0.00    +0.213 HD
ATOM      5  N   LIG    1       -2.798  -2.284  -0.347  0.00  0.00    -0.144 NA
ATOM      6  C   LIG    1       -1.539  -1.997  -0.641  0.00  0.00    +0.189 A 
ENDROOT
BRANCH   1  13
ATOM      7  C   LIG    1       -0.017   1.389   0.010  0.00  0.00    +0.011 A 
ATOM      8  C   LIG    1        1.170   2.093   0.002  0.00  0.00    +0.016 A 
ATOM      9  C   LIG    1        2.378   1.418  -0.013  0.00  0.00    +0.018 A 
ATOM     10 BR   LIG    1        4.001   2.389  -0.024  0.00  0.00    -0.050 Br
ATOM     11  C   LIG    1        2.402   0.034  -0.021  0.00  0.00    +0.016 A 
ATOM     12  C   LIG    1        1.221  -0.680  -0.013  0.00  0.00    +0.011 A 
ATOM     13  C   LIG    1        0.002  -0.004   0.002  0.00  0.00    +0.005 A 
ENDBRANCH   1  13
BRANCH   6  14
ATOM     14  C   LIG    1       -0.640  -2.767  -1.447  0.00  0.00    +0.123 C 
ATOM     15  N   LIG    1        0.074  -3.377  -2.087  0.00  0.00    -0.189 NA
ENDBRANCH   6  14
TORSDOF 2
