REMARK  Name = ZINC06827693
REMARK                            x       y       z     vdW  Elec       q    Type
REMARK                         _______ _______ _______ _____ _____    ______ ____
ROOT
ATOM      1  C   LIG    1       -0.015   1.218   0.009  0.00  0.00    +0.505 C 
ATOM      2  O   LIG    1        0.002  -0.004   0.002  0.00  0.00    -0.203 OA
ENDROOT
BRANCH   1   3
ATOM      3  O   LIG    1       -1.081   1.815   0.017  0.00  0.00    -0.450 OA
ATOM      4  H   LIG    1       -1.886   1.335   0.022  0.00  0.00    +0.299 HD
ENDBRANCH   1   3
BRANCH   1   5
ATOM      5  O   LIG    1        1.139   1.905   0.001  0.00  0.00    -0.450 OA
ATOM      6  H   LIG    1        1.929   1.347  -0.009  0.00  0.00    +0.299 HD
ENDBRANCH   1   5
TORSDOF 2
