REMARK  Name = ZINC06719711
REMARK                            x       y       z     vdW  Elec       q    Type
REMARK                         _______ _______ _______ _____ _____    ______ ____
ROOT
ATOM      1  C   LIG    1        0.133  -4.176  -0.021  0.00  0.00    +0.109 A 
ATOM      2  N   LIG    1        0.130  -2.853  -0.014  0.00  0.00    -0.239 NA
ATOM      3  C   LIG    1        1.255  -2.165  -0.021  0.00  0.00    +0.082 A 
ATOM      4  C   LIG    1        2.453  -2.833  -0.041  0.00  0.00    +0.075 A 
ATOM      5  S   LIG    1        1.885  -4.529  -0.040  0.00  0.00    -0.075 S 
ENDROOT
BRANCH   1   8
ATOM      6  C   LIG    1       -1.899  -7.338  -0.018  0.00  0.00    +0.042 A 
ATOM      7  C   LIG    1       -0.804  -6.499  -0.025  0.00  0.00    +0.034 A 
ATOM      8  C   LIG    1       -1.010  -5.115  -0.015  0.00  0.00    +0.010 A 
ATOM      9  C   LIG    1       -2.328  -4.643   0.006  0.00  0.00    +0.030 A 
ATOM     10  C   LIG    1       -3.364  -5.553   0.006  0.00  0.00    +0.111 A 
ATOM     11  N   LIG    1       -3.126  -6.851  -0.004  0.00  0.00    -0.260 NA
BRANCH   6  12
ATOM     12  C   LIG    1       -1.693  -8.830  -0.029  0.00  0.00    +0.055 C 
BRANCH  12  14
ATOM     13  C   LIG    1       -2.220 -10.971   1.146  0.00  0.00    +0.004 C 
ATOM     14  C   LIG    1       -2.430  -9.456   1.157  0.00  0.00    +0.003 C 
ENDBRANCH  12  14
ENDBRANCH   6  12
ENDBRANCH   1   8
BRANCH   3  15
ATOM     15  C   LIG    1        1.225  -0.682  -0.013  0.00  0.00    +0.043 A 
ATOM     16  C   LIG    1        2.415   0.042  -0.021  0.00  0.00    +0.013 A 
ATOM     17  C   LIG    1        2.382   1.422  -0.013  0.00  0.00    +0.001 A 
ATOM     18  C   LIG    1        1.170   2.090   0.002  0.00  0.00    +0.004 A 
ATOM     19  C   LIG    1       -0.017   1.381   0.010  0.00  0.00    +0.046 A 
ATOM     20  C   LIG    1        0.002  -0.004   0.002  0.00  0.00    +0.129 A 
BRANCH  20  21
ATOM     21  O   LIG    1       -1.164  -0.702   0.010  0.00  0.00    -0.494 OA
ATOM     22  C   LIG    1       -2.374   0.058   0.026  0.00  0.00    +0.277 C 
ENDBRANCH  20  21
ENDBRANCH   3  15
TORSDOF 5
