REMARK  Name = ZINC06500199
REMARK                            x       y       z     vdW  Elec       q    Type
REMARK                         _______ _______ _______ _____ _____    ______ ____
ROOT
ATOM      1  N   LIG    1       -1.197   2.366   0.021  0.00  0.00    -0.303 N 
ATOM      2  H   LIG    1       -1.173   3.441  -0.210  0.00  0.00    +0.153 HD
ENDROOT
BRANCH   1  10
ATOM      3  C   LIG    1       -3.216   1.829  -1.191  0.00  0.00    +0.025 A 
ATOM      4  C   LIG    1       -4.398   1.121  -1.295  0.00  0.00    +0.023 A 
ATOM      5  C   LIG    1       -4.773   0.247  -0.290  0.00  0.00    +0.059 A 
ATOM      6 CL   LIG    1       -6.262  -0.635  -0.420  0.00  0.00    -0.082 Cl
ATOM      7  C   LIG    1       -3.962   0.075   0.819  0.00  0.00    +0.061 A 
ATOM      8 CL   LIG    1       -4.434  -1.023   2.078  0.00  0.00    -0.082 Cl
ATOM      9  C   LIG    1       -2.775   0.776   0.924  0.00  0.00    +0.044 A 
ATOM     10  C   LIG    1       -2.398   1.654  -0.083  0.00  0.00    +0.034 A 
ENDBRANCH   1  10
BRANCH   1  11
ATOM     11  C   LIG    1       -0.070   1.734   0.404  0.00  0.00    +0.111 C 
ATOM     12  S   LIG    1       -0.128   0.087   0.867  0.00  0.00    -0.028 S 
BRANCH  11  13
ATOM     13  S   LIG    1        1.464   2.600   0.420  0.00  0.00    -0.100 S 
BRANCH  13  14
ATOM     14  C   LIG    1        2.564   1.281   0.990  0.00  0.00    +0.104 C 
BRANCH  14  15
ATOM     15  C   LIG    1        3.995   1.815   1.085  0.00  0.00    +0.167 C 
BRANCH  15  16
ATOM     16  O   LIG    1        4.863   0.773   1.535  0.00  0.00    -0.394 OA
ATOM     17  H   LIG    1        5.938   0.971   1.664  0.00  0.00    +0.209 HD
ENDBRANCH  15  16
ENDBRANCH  14  15
ENDBRANCH  13  14
ENDBRANCH  11  13
ENDBRANCH   1  11
TORSDOF 6
