REMARK  Name = ZINC07909008
REMARK                            x       y       z     vdW  Elec       q    Type
REMARK                         _______ _______ _______ _____ _____    ______ ____
ROOT
ATOM      1  N   LIG    1        0.688  -0.476  -1.203  0.00  0.00    -0.348 N 
ATOM      2  H   LIG    1        0.345  -0.242  -2.080  0.00  0.00    +0.163 HD
ATOM      3  C   LIG    1        1.758  -1.212  -1.098  0.00  0.00    +0.211 C 
ENDROOT
BRANCH   3   4
ATOM      4  C   LIG    1        2.448  -1.687  -2.310  0.00  0.00    +0.100 A 
ATOM      5  C   LIG    1        2.068  -1.421  -3.586  0.00  0.00    +0.041 A 
ATOM      6  C   LIG    1        2.991  -2.058  -4.452  0.00  0.00    +0.000 A 
ATOM      7  C   LIG    1        3.107  -2.135  -5.846  0.00  0.00    +0.010 A 
ATOM      8  C   LIG    1        4.131  -2.845  -6.404  0.00  0.00    +0.001 A 
ATOM      9  C   LIG    1        5.062  -3.492  -5.601  0.00  0.00    +0.002 A 
ATOM     10  C   LIG    1        4.969  -3.431  -4.229  0.00  0.00    +0.026 A 
ATOM     11  C   LIG    1        3.933  -2.714  -3.637  0.00  0.00    +0.047 A 
ATOM     12  N   LIG    1        3.585  -2.468  -2.329  0.00  0.00    -0.351 N 
ATOM     13  H   LIG    1        4.060  -2.793  -1.547  0.00  0.00    +0.166 HD
ENDBRANCH   3   4
BRANCH   1  15
ATOM     14  C   LIG    1       -0.019   1.526   0.010  0.00  0.00    +0.035 C 
ATOM     15  C   LIG    1        0.002  -0.004   0.002  0.00  0.00    +0.109 C 
BRANCH  15  16
ATOM     16  C   LIG    1       -1.412  -0.526   0.013  0.00  0.00    -0.025 A 
ATOM     17  C   LIG    1       -2.141  -0.569  -1.161  0.00  0.00    +0.005 A 
ATOM     18  C   LIG    1       -3.438  -1.047  -1.151  0.00  0.00    +0.000 A 
ATOM     19  C   LIG    1       -4.005  -1.483   0.032  0.00  0.00    +0.000 A 
ATOM     20  C   LIG    1       -3.275  -1.441   1.205  0.00  0.00    +0.000 A 
ATOM     21  C   LIG    1       -1.977  -0.966   1.195  0.00  0.00    +0.005 A 
ENDBRANCH  15  16
ENDBRANCH   1  15
BRANCH   3  22
ATOM     22  O   LIG    1        2.236  -1.539   0.125  0.00  0.00    -0.492 OA
ATOM     23  H   LIG    1        3.033  -2.086   0.102  0.00  0.00    +0.294 HD
ENDBRANCH   3  22
TORSDOF 4
