REMARK  Name = ZINC08037896
REMARK                            x       y       z     vdW  Elec       q    Type
REMARK                         _______ _______ _______ _____ _____    ______ ____
ROOT
ATOM      1  N   LIG    1        1.620  -2.797   5.383  0.00  0.00    -0.324 N 
ATOM      2  H   LIG    1        0.695  -2.526   5.274  0.00  0.00    +0.148 HD
ENDROOT
BRANCH   1   3
ATOM      3  C   LIG    1        2.025  -3.414   6.547  0.00  0.00    +0.130 A 
ATOM      4  C   LIG    1        1.105  -3.667   7.594  0.00  0.00    +0.040 A 
ATOM      5  C   LIG    1       -0.244  -3.309   7.503  0.00  0.00    +0.013 A 
ATOM      6  C   LIG    1       -1.083  -3.579   8.543  0.00  0.00    +0.001 A 
ATOM      7  C   LIG    1       -0.615  -4.205   9.695  0.00  0.00    +0.002 A 
ATOM      8  C   LIG    1        0.694  -4.566   9.816  0.00  0.00    +0.028 A 
ATOM      9  C   LIG    1        1.583  -4.304   8.765  0.00  0.00    +0.076 A 
ATOM     10  N   LIG    1        2.881  -4.640   8.832  0.00  0.00    -0.235 NA
ATOM     11  C   LIG    1        3.687  -4.381   7.831  0.00  0.00    +0.223 A 
ATOM     12  N   LIG    1        3.285  -3.792   6.715  0.00  0.00    -0.220 NA
ENDBRANCH   1   3
BRANCH   1  13
ATOM     13  C   LIG    1        2.587  -2.550   4.310  0.00  0.00    +0.138 C 
BRANCH  13  17
ATOM     14  C   LIG    1        0.626  -0.618   1.042  0.00  0.00    +0.120 A 
ATOM     15  C   LIG    1        1.202   0.138   2.051  0.00  0.00    +0.046 A 
ATOM     16  C   LIG    1        1.835  -0.488   3.107  0.00  0.00    +0.009 A 
ATOM     17  C   LIG    1        1.895  -1.869   3.158  0.00  0.00    -0.030 A 
ATOM     18  C   LIG    1        1.322  -2.625   2.152  0.00  0.00    +0.009 A 
ATOM     19  C   LIG    1        0.682  -2.003   1.098  0.00  0.00    +0.046 A 
BRANCH  14  21
ATOM     20  C   LIG    1       -0.017   1.425   0.010  0.00  0.00    +0.277 C 
ATOM     21  O   LIG    1        0.002  -0.004   0.002  0.00  0.00    -0.495 OA
ENDBRANCH  14  21
ENDBRANCH  13  17
ENDBRANCH   1  13
TORSDOF 4
