REMARK  Name = ZINC06091809
REMARK                            x       y       z     vdW  Elec       q    Type
REMARK                         _______ _______ _______ _____ _____    ______ ____
ROOT
ATOM      1  N   LIG    1       -2.406   0.961   0.170  0.00  0.00    -0.070 NA
ATOM      2  C   LIG    1       -1.255   1.605   0.209  0.00  0.00    +0.430 C 
ENDROOT
BRANCH   1  10
ATOM      3  C   LIG    1       -3.143  -1.060   1.225  0.00  0.00    +0.047 A 
ATOM      4  C   LIG    1       -3.160  -2.439   1.270  0.00  0.00    +0.025 A 
ATOM      5  C   LIG    1       -2.470  -3.174   0.322  0.00  0.00    +0.059 A 
ATOM      6 CL   LIG    1       -2.498  -4.909   0.386  0.00  0.00    -0.082 Cl
ATOM      7  C   LIG    1       -1.758  -2.532  -0.678  0.00  0.00    +0.063 A 
ATOM      8 CL   LIG    1       -0.896  -3.463  -1.863  0.00  0.00    -0.082 Cl
ATOM      9  C   LIG    1       -1.737  -1.153  -0.738  0.00  0.00    +0.067 A 
ATOM     10  C   LIG    1       -2.427  -0.406   0.220  0.00  0.00    +0.144 A 
ENDBRANCH   1  10
BRANCH   2  11
ATOM     11  N   LIG    1       -0.086   0.914   0.444  0.00  0.00    -0.286 N 
ATOM     12  H   LIG    1       -0.112  -0.175   0.598  0.00  0.00    +0.255 HD
ATOM     13  H   LIG    1        0.874   1.451   0.476  0.00  0.00    +0.255 HD
ENDBRANCH   2  11
BRANCH   2  14
ATOM     14  N   LIG    1       -1.223   2.937   0.021  0.00  0.00    -0.003 NA
ATOM     15  C   LIG    1       -1.918   3.733   0.813  0.00  0.00    +0.387 C 
BRANCH  15  16
ATOM     16  N   LIG    1       -1.919   5.082   0.595  0.00  0.00    -0.289 N 
ATOM     17  H   LIG    1       -1.341   5.505  -0.240  0.00  0.00    +0.255 HD
ATOM     18  H   LIG    1       -2.498   5.745   1.255  0.00  0.00    +0.255 HD
ENDBRANCH  15  16
BRANCH  15  19
ATOM     19  N   LIG    1       -2.635   3.208   1.850  0.00  0.00    -0.289 N 
ATOM     20  H   LIG    1       -2.635   2.122   2.026  0.00  0.00    +0.255 HD
ATOM     21  H   LIG    1       -3.214   3.871   2.510  0.00  0.00    +0.255 HD
ENDBRANCH  15  19
ENDBRANCH   2  14
TORSDOF 5
