REMARK  Name = ZINC07751153
REMARK                            x       y       z     vdW  Elec       q    Type
REMARK                         _______ _______ _______ _____ _____    ______ ____
ROOT
ATOM      1  N   LIG    1       -0.749   3.044   1.275  0.00  0.00    -0.304 N 
ATOM      2  H   LIG    1       -1.520   3.521   0.930  0.00  0.00    +0.150 HD
ATOM      3  C   LIG    1        0.305   3.730   1.762  0.00  0.00    +0.251 C 
ATOM      4  O   LIG    1        1.271   3.132   2.195  0.00  0.00    -0.270 OA
ENDROOT
BRANCH   3   5
ATOM      5  C   LIG    1        0.285   5.202   1.770  0.00  0.00    +0.074 A 
ATOM      6  C   LIG    1        1.254   6.085   2.227  0.00  0.00    +0.021 A 
ATOM      7  C   LIG    1        1.019   7.426   2.130  0.00  0.00    +0.020 A 
ATOM      8  C   LIG    1       -0.188   7.854   1.586  0.00  0.00    +0.055 A 
ATOM      9  S   LIG    1       -0.996   6.309   1.201  0.00  0.00    -0.081 S 
BRANCH   8  10
ATOM     10  C   LIG    1       -0.670   9.220   1.382  0.00  0.00    +0.167 C 
ATOM     11  C   LIG    1       -2.026   9.456   0.769  0.00  0.00    +0.092 C 
ATOM     12  O   LIG    1        0.021  10.162   1.707  0.00  0.00    -0.292 OA
ENDBRANCH   8  10
ENDBRANCH   3   5
BRANCH   1  14
ATOM     13  C   LIG    1       -0.013   1.086   0.008  0.00  0.00    +0.033 C 
ATOM     14  C   LIG    1       -0.729   1.579   1.267  0.00  0.00    +0.100 C 
BRANCH  14  15
ATOM     15  C   LIG    1       -2.143   1.058   1.278  0.00  0.00    -0.027 A 
ATOM     16  C   LIG    1       -3.117   1.686   0.525  0.00  0.00    +0.005 A 
ATOM     17  C   LIG    1       -4.413   1.205   0.531  0.00  0.00    +0.000 A 
ATOM     18  C   LIG    1       -4.737   0.101   1.297  0.00  0.00    +0.000 A 
ATOM     19  C   LIG    1       -3.763  -0.525   2.054  0.00  0.00    +0.000 A 
ATOM     20  C   LIG    1       -2.466  -0.046   2.044  0.00  0.00    +0.005 A 
ENDBRANCH  14  15
ENDBRANCH   1  14
TORSDOF 4
