REMARK  Name = ZINC06068952
REMARK                            x       y       z     vdW  Elec       q    Type
REMARK                         _______ _______ _______ _____ _____    ______ ____
ROOT
ATOM      1  C   LIG    1        1.710  -1.900  -0.024  0.00  0.00    +0.063 C 
ATOM      2  C   LIG    1        1.295  -0.451  -0.013  0.00  0.00    +0.017 A 
ATOM      3  C   LIG    1        2.140   0.593  -0.015  0.00  0.00    -0.018 A 
ATOM      4  C   LIG    1        1.321   1.807  -0.001  0.00  0.00    +0.008 A 
ATOM      5  C   LIG    1        1.614   3.174   0.004  0.00  0.00    +0.057 A 
ATOM      6  C   LIG    1        0.584   4.092   0.018  0.00  0.00    +0.140 A 
ATOM      7  C   LIG    1       -0.741   3.662   0.029  0.00  0.00    +0.103 A 
ATOM      8 CL   LIG    1       -2.025   4.831   0.048  0.00  0.00    -0.078 Cl
ATOM      9  C   LIG    1       -1.042   2.317   0.030  0.00  0.00    +0.087 A 
ATOM     10 CL   LIG    1       -2.698   1.797   0.049  0.00  0.00    -0.080 Cl
ATOM     11  C   LIG    1       -0.017   1.375   0.010  0.00  0.00    +0.067 A 
ATOM     12  N   LIG    1        0.002  -0.004   0.002  0.00  0.00    -0.357 N 
ATOM     13  H   LIG    1       -0.784  -0.572   0.006  0.00  0.00    +0.166 HD
ENDROOT
BRANCH   6  14
ATOM     14  O   LIG    1        0.865   5.423   0.023  0.00  0.00    -0.494 OA
ATOM     15  C   LIG    1        2.244   5.796   0.012  0.00  0.00    +0.277 C 
ENDBRANCH   6  14
BRANCH   3  16
ATOM     16  C   LIG    1        3.645   0.527  -0.030  0.00  0.00    +0.056 C 
BRANCH  16  17
ATOM     17  C   LIG    1        4.141   0.512  -1.478  0.00  0.00    +0.109 C 
BRANCH  17  18
ATOM     18  N   LIG    1        5.604   0.448  -1.492  0.00  0.00    -0.315 N 
ATOM     19  H   LIG    1        6.097   0.423  -0.657  0.00  0.00    +0.149 HD
ATOM     20  C   LIG    1        6.266   0.425  -2.666  0.00  0.00    +0.210 C 
ATOM     21  C   LIG    1        7.771   0.359  -2.682  0.00  0.00    +0.109 C 
ATOM     22  O   LIG    1        5.650   0.457  -3.711  0.00  0.00    -0.276 OA
ENDBRANCH  17  18
ENDBRANCH  16  17
ENDBRANCH   3  16
TORSDOF 4
