REMARK  Name = ZINC06527954
REMARK                            x       y       z     vdW  Elec       q    Type
REMARK                         _______ _______ _______ _____ _____    ______ ____
ROOT
ATOM      1  N   LIG    1        4.326   2.557   1.556  0.00  0.00    -0.108 N 
ATOM      2  H   LIG    1        3.759   2.210   2.282  0.00  0.00    +0.211 HD
ENDROOT
BRANCH   1   3
ATOM      3  S   LIG    1        3.891   2.315  -0.023  0.00  0.00    +0.095 S 
ATOM      4  O   LIG    1        3.597   3.595  -0.564  0.00  0.00    -0.148 OA
ATOM      5  O   LIG    1        4.872   1.456  -0.588  0.00  0.00    -0.148 OA
BRANCH   3   8
ATOM      6  C   LIG    1       -0.017   1.380   0.010  0.00  0.00    +0.040 A 
ATOM      7  C   LIG    1        1.171   2.087   0.002  0.00  0.00    +0.032 A 
ATOM      8  C   LIG    1        2.377   1.412  -0.013  0.00  0.00    +0.111 A 
ATOM      9  C   LIG    1        2.397   0.030  -0.021  0.00  0.00    +0.032 A 
ATOM     10  C   LIG    1        1.211  -0.679  -0.014  0.00  0.00    +0.040 A 
ATOM     11  C   LIG    1        0.002  -0.004   0.002  0.00  0.00    +0.124 A 
ATOM     12  F   LIG    1       -1.158  -0.696   0.009  0.00  0.00    -0.205 F 
ENDBRANCH   3   8
ENDBRANCH   1   3
BRANCH   1  13
ATOM     13  N   LIG    1        5.503   3.255   1.859  0.00  0.00    -0.173 N 
ATOM     14  H   LIG    1        6.062   3.596   1.144  0.00  0.00    +0.289 HD
ATOM     15  C   LIG    1        5.844   3.445   3.098  0.00  0.00    +0.362 C 
BRANCH  15  16
ATOM     16  N   LIG    1        7.010   4.136   3.398  0.00  0.00    -0.290 N 
ATOM     17  H   LIG    1        7.265   4.278   4.323  0.00  0.00    +0.255 HD
ATOM     18  H   LIG    1        7.569   4.478   2.683  0.00  0.00    +0.255 HD
ENDBRANCH  15  16
BRANCH  15  19
ATOM     19  N   LIG    1        5.044   2.956   4.122  0.00  0.00    -0.290 N 
ATOM     20  H   LIG    1        5.299   3.098   5.047  0.00  0.00    +0.255 HD
ATOM     21  H   LIG    1        4.230   2.473   3.912  0.00  0.00    +0.255 HD
ENDBRANCH  15  19
ENDBRANCH   1  13
TORSDOF 5
