REMARK  Name = ZINC08437745
REMARK                            x       y       z     vdW  Elec       q    Type
REMARK                         _______ _______ _______ _____ _____    ______ ____
ROOT
ATOM      1  C   LIG    1       -0.021   1.708   0.011  0.00  0.00    +0.125 C 
ATOM      2  S   LIG    1        0.002  -0.004   0.002  0.00  0.00    -0.019 S 
ENDROOT
BRANCH   1   3
ATOM      3  N   LIG    1       -1.197   2.366   0.021  0.00  0.00    -0.341 N 
ATOM      4  H   LIG    1       -1.210   3.336   0.026  0.00  0.00    +0.144 HD
ATOM      5  H   LIG    1       -2.031   1.869   0.022  0.00  0.00    +0.144 HD
ENDBRANCH   1   3
BRANCH   1   6
ATOM      6  N   LIG    1        1.137   2.397   0.004  0.00  0.00    -0.341 N 
ATOM      7  H   LIG    1        1.124   3.367   0.009  0.00  0.00    +0.144 HD
ATOM      8  H   LIG    1        1.983   1.924  -0.006  0.00  0.00    +0.144 HD
ENDBRANCH   1   6
TORSDOF 2
