REMARK  Name = ZINC06005366
REMARK                            x       y       z     vdW  Elec       q    Type
REMARK                         _______ _______ _______ _____ _____    ______ ____
ROOT
ATOM      1  C   LIG    1       -1.798  -1.655   0.587  0.00  0.00    +0.025 C 
ENDROOT
BRANCH   1   2
ATOM      2  C   LIG    1       -1.414  -0.195   0.336  0.00  0.00    +0.085 C 
BRANCH   2   3
ATOM      3  C   LIG    1       -1.698   0.618   1.573  0.00  0.00    -0.024 A 
ATOM      4  C   LIG    1       -0.667   1.277   2.217  0.00  0.00    +0.009 A 
ATOM      5  C   LIG    1       -0.922   2.024   3.352  0.00  0.00    +0.050 A 
ATOM      6  C   LIG    1       -2.213   2.115   3.846  0.00  0.00    +0.162 A 
ATOM      7  C   LIG    1       -3.251   1.452   3.197  0.00  0.00    +0.162 A 
ATOM      8  C   LIG    1       -2.990   0.709   2.058  0.00  0.00    +0.054 A 
BRANCH   6   9
ATOM      9  O   LIG    1       -2.466   2.849   4.962  0.00  0.00    -0.491 OA
ATOM     10  C   LIG    1       -1.352   3.501   5.575  0.00  0.00    +0.277 C 
ENDBRANCH   6   9
BRANCH   7  11
ATOM     11  O   LIG    1       -4.520   1.538   3.678  0.00  0.00    -0.491 OA
ATOM     12  C   LIG    1       -5.535   0.832   2.961  0.00  0.00    +0.277 C 
ENDBRANCH   7  11
ENDBRANCH   2   3
BRANCH   2  14
ATOM     13  C   LIG    1        0.461   1.351  -0.241  0.00  0.00    +0.009 C 
ATOM     14  C   LIG    1        0.076  -0.110   0.001  0.00  0.00    +0.007 C 
ATOM     15  C   LIG    1        0.894  -0.667   1.167  0.00  0.00    +0.009 C 
ENDBRANCH   2  14
BRANCH   2  16
ATOM     16  C   LIG    1       -2.202   0.333  -0.789  0.00  0.00    +0.074 C 
ATOM     17  N   LIG    1       -2.810   0.740  -1.658  0.00  0.00    -0.196 NA
ENDBRANCH   2  16
ENDBRANCH   1   2
BRANCH   1  18
ATOM     18  C   LIG    1       -1.510  -2.481  -0.668  0.00  0.00    -0.017 C 
BRANCH  18  19
ATOM     19  C   LIG    1       -1.893  -3.940  -0.418  0.00  0.00    -0.083 C 
BRANCH  19  20
ATOM     20  N   LIG    1       -1.617  -4.733  -1.623  0.00  0.00    +0.379 N 
ATOM     21  H   LIG    1       -0.634  -4.677  -1.845  0.00  0.00    -0.086 HD
ATOM     22  H   LIG    1       -2.157  -4.371  -2.395  0.00  0.00    -0.086 HD
BRANCH  20  23
ATOM     23  C   LIG    1       -1.985  -6.135  -1.383  0.00  0.00    -0.078 C 
BRANCH  23  24
ATOM     24  C   LIG    1       -1.697  -6.960  -2.638  0.00  0.00    +0.016 C 
BRANCH  24  25
ATOM     25  C   LIG    1       -2.075  -8.398  -2.391  0.00  0.00    -0.045 A 
ATOM     26  C   LIG    1       -1.142  -9.277  -1.873  0.00  0.00    +0.007 A 
ATOM     27  C   LIG    1       -1.483 -10.597  -1.645  0.00  0.00    +0.049 A 
ATOM     28  C   LIG    1       -2.763 -11.042  -1.935  0.00  0.00    +0.161 A 
ATOM     29  C   LIG    1       -3.702 -10.157  -2.457  0.00  0.00    +0.162 A 
ATOM     30  C   LIG    1       -3.355  -8.834  -2.679  0.00  0.00    +0.053 A 
BRANCH  28  31
ATOM     31  O   LIG    1       -3.100 -12.340  -1.712  0.00  0.00    -0.491 OA
ATOM     32  C   LIG    1       -2.086 -13.191  -1.176  0.00  0.00    +0.277 C 
ENDBRANCH  28  31
BRANCH  29  33
ATOM     33  O   LIG    1       -4.959 -10.589  -2.744  0.00  0.00    -0.491 OA
ATOM     34  C   LIG    1       -5.870  -9.625  -3.276  0.00  0.00    +0.277 C 
ENDBRANCH  29  33
ENDBRANCH  24  25
ENDBRANCH  23  24
ENDBRANCH  20  23
ENDBRANCH  19  20
ENDBRANCH  18  19
ENDBRANCH   1  18
TORSDOF 14
