REMARK  Name = ZINC06031758
REMARK                            x       y       z     vdW  Elec       q    Type
REMARK                         _______ _______ _______ _____ _____    ______ ____
ROOT
ATOM      1  C   LIG    1        2.821  -0.589  -2.484  0.00  0.00    +0.007 C 
ATOM      2  C   LIG    1        2.143  -0.041  -1.226  0.00  0.00    -0.018 C 
ATOM      3  C   LIG    1        0.708  -0.560  -1.145  0.00  0.00    -0.064 C 
ATOM      4  N   LIG    1       -0.009  -0.018   0.020  0.00  0.00    +0.381 N 
ATOM      5  H   LIG    1       -0.978  -0.358   0.004  0.00  0.00    -0.086 HD
ATOM      6  H   LIG    1        0.453  -0.344   0.877  0.00  0.00    -0.086 HD
ATOM      7  C   LIG    1       -0.018   1.462   0.010  0.00  0.00    -0.081 C 
ATOM      8  C   LIG    1        1.420   1.993  -0.001  0.00  0.00    -0.008 C 
ATOM      9  C   LIG    1       -0.002  -0.275  -2.457  0.00  0.00    +0.020 C 
ATOM     10  C   LIG    1        0.246   1.099  -2.966  0.00  0.00    -0.045 A 
ATOM     11  C   LIG    1       -0.538   1.554  -4.021  0.00  0.00    +0.007 A 
ATOM     12  C   LIG    1       -0.333   2.806  -4.559  0.00  0.00    +0.045 A 
ATOM     13  C   LIG    1        0.664   3.623  -4.045  0.00  0.00    +0.117 A 
ATOM     14  C   LIG    1        1.440   3.174  -2.990  0.00  0.00    +0.049 A 
ATOM     15  C   LIG    1        1.226   1.915  -2.449  0.00  0.00    -0.035 A 
ATOM     16  C   LIG    1        2.095   1.489  -1.289  0.00  0.00    -0.007 C 
ATOM     17  C   LIG    1        3.505   2.066  -1.433  0.00  0.00    +0.016 C 
ENDROOT
BRANCH  13  18
ATOM     18  O   LIG    1        0.878   4.857  -4.575  0.00  0.00    -0.507 OA
ATOM     19  H   LIG    1        1.517   4.868  -5.300  0.00  0.00    +0.292 HD
ENDBRANCH  13  18
TORSDOF 1
