REMARK  Name = ZINC06235014
REMARK                            x       y       z     vdW  Elec       q    Type
REMARK                         _______ _______ _______ _____ _____    ______ ____
ROOT
ATOM      1  C   LIG    1        1.975  -6.346  -0.043  0.00  0.00    +0.178 A 
ATOM      2  N   LIG    1        3.165  -6.918  -0.048  0.00  0.00    -0.224 NA
ATOM      3  C   LIG    1        3.292  -8.244  -0.056  0.00  0.00    +0.080 A 
ATOM      4  C   LIG    1        2.169  -9.022  -0.060  0.00  0.00    +0.077 A 
ATOM      5  S   LIG    1        0.894  -7.769  -0.044  0.00  0.00    -0.059 S 
ENDROOT
BRANCH   3   6
ATOM      6  C   LIG    1        4.637  -8.868  -0.061  0.00  0.00    +0.003 A 
ATOM      7  C   LIG    1        4.763 -10.256  -0.076  0.00  0.00    +0.010 A 
ATOM      8  C   LIG    1        6.018 -10.832  -0.081  0.00  0.00    +0.003 A 
ATOM      9  C   LIG    1        7.148 -10.034  -0.071  0.00  0.00    +0.032 A 
ATOM     10  C   LIG    1        7.028  -8.656  -0.056  0.00  0.00    +0.122 A 
ATOM     11  C   LIG    1        5.779  -8.069  -0.057  0.00  0.00    +0.042 A 
BRANCH  10  12
ATOM     12  N   LIG    1        8.242  -7.809  -0.046  0.00  0.00    +0.006 N 
ATOM     13  O   LIG    1        9.337  -8.322  -0.050  0.00  0.00    -0.130 OA
BRANCH  12  14
ATOM     14  O   LIG    1        8.139  -6.605  -0.033  0.00  0.00    -0.396 OA
ATOM     15  H   LIG    1        7.290  -6.207  -0.030  0.00  0.00    +0.329 HD
ENDBRANCH  12  14
ENDBRANCH  10  12
ENDBRANCH   3   6
BRANCH   1  16
ATOM     16  N   LIG    1        1.651  -4.999  -0.034  0.00  0.00    -0.194 N 
ATOM     17  H   LIG    1        2.365  -4.321  -0.035  0.00  0.00    +0.176 HD
BRANCH  16  18
ATOM     18  S   LIG    1        0.063  -4.530  -0.023  0.00  0.00    +0.074 S 
ATOM     19  O   LIG    1       -0.490  -4.937  -1.267  0.00  0.00    -0.150 OA
ATOM     20  O   LIG    1       -0.476  -4.950   1.223  0.00  0.00    -0.150 OA
BRANCH  18  25
ATOM     21  C   LIG    1       -0.018   1.503   0.010  0.00  0.00    +0.044 C 
ATOM     22  C   LIG    1        0.002  -0.004   0.002  0.00  0.00    -0.050 A 
ATOM     23  C   LIG    1        0.006  -0.689  -1.199  0.00  0.00    +0.005 A 
ATOM     24  C   LIG    1        0.025  -2.071  -1.206  0.00  0.00    +0.029 A 
ATOM     25  C   LIG    1        0.040  -2.768  -0.013  0.00  0.00    +0.109 A 
ATOM     26  C   LIG    1        0.037  -2.084   1.188  0.00  0.00    +0.029 A 
ATOM     27  C   LIG    1        0.023  -0.702   1.195  0.00  0.00    +0.005 A 
ENDBRANCH  18  25
ENDBRANCH  16  18
ENDBRANCH   1  16
TORSDOF 6
