REMARK  Name = ZINC06031671
REMARK                            x       y       z     vdW  Elec       q    Type
REMARK                         _______ _______ _______ _____ _____    ______ ____
ROOT
ATOM      1  C   LIG    1       -5.523  -0.551  -1.262  0.00  0.00    +0.070 C 
ATOM      2  C   LIG    1       -4.697   0.193  -0.212  0.00  0.00    +0.248 C 
ATOM      3  O   LIG    1       -5.217   1.526  -0.013  0.00  0.00    -0.349 OA
ATOM      4  C   LIG    1       -4.111   2.272   0.540  0.00  0.00    +0.196 C 
ATOM      5  C   LIG    1       -2.859   1.507   0.085  0.00  0.00    +0.084 C 
ATOM      6  C   LIG    1       -2.066   1.017   1.292  0.00  0.00    -0.041 C 
ATOM      7  N   LIG    1       -0.686   1.550   1.240  0.00  0.00    +0.382 N 
ATOM      8  H   LIG    1       -0.164   1.206   2.055  0.00  0.00    -0.082 HD
ATOM      9  C   LIG    1       -0.715   3.027   1.275  0.00  0.00    -0.078 C 
ATOM     10  C   LIG    1       -1.484   3.579   0.072  0.00  0.00    -0.012 C 
ATOM     11  C   LIG    1       -0.013   1.086   0.008  0.00  0.00    -0.078 C 
ATOM     12  C   LIG    1       -0.752   1.593  -1.233  0.00  0.00    -0.012 C 
ATOM     13  C   LIG    1       -1.976   2.403  -0.783  0.00  0.00    +0.018 C 
ATOM     14  O   LIG    1       -3.344   0.393  -0.681  0.00  0.00    -0.345 OA
ENDROOT
TORSDOF 0
