REMARK  Name = ZINC06221909
REMARK                            x       y       z     vdW  Elec       q    Type
REMARK                         _______ _______ _______ _____ _____    ______ ____
ROOT
ATOM      1  C   LIG    1        3.099  10.434   0.026  0.00  0.00    +0.064 C 
ATOM      2  C   LIG    1        4.466  10.192   0.012  0.00  0.00    +0.105 C 
ATOM      3  C   LIG    1        5.551  11.188   0.007  0.00  0.00    +0.266 C 
ATOM      4  N   LIG    1        6.711  10.504  -0.007  0.00  0.00    -0.223 N 
ATOM      5  H   LIG    1        7.592  10.909  -0.013  0.00  0.00    +0.174 HD
ATOM      6  N   LIG    1        6.468   9.130  -0.012  0.00  0.00    -0.184 N 
ATOM      7  O   LIG    1        5.424  12.399   0.015  0.00  0.00    -0.268 OA
ATOM      8  C   LIG    1        5.144   8.885   0.005  0.00  0.00    +0.272 C 
ATOM      9  O   LIG    1        4.610   7.791   0.010  0.00  0.00    -0.268 OA
ENDROOT
BRANCH   6  10
ATOM     10  C   LIG    1        7.461   8.145  -0.025  0.00  0.00    +0.056 A 
ATOM     11  C   LIG    1        7.109   6.802  -0.023  0.00  0.00    +0.026 A 
ATOM     12  C   LIG    1        8.091   5.832  -0.042  0.00  0.00    +0.022 A 
ATOM     13  C   LIG    1        9.426   6.197  -0.053  0.00  0.00    +0.041 A 
ATOM     14 CL   LIG    1       10.658   4.974  -0.070  0.00  0.00    -0.084 Cl
ATOM     15  C   LIG    1        9.780   7.535  -0.049  0.00  0.00    +0.022 A 
ATOM     16  C   LIG    1        8.801   8.509  -0.036  0.00  0.00    +0.026 A 
ENDBRANCH   6  10
BRANCH   1  20
ATOM     17  C   LIG    1        1.403   7.307   0.026  0.00  0.00    +0.136 A 
ATOM     18  C   LIG    1        0.315   8.155   0.041  0.00  0.00    +0.050 A 
ATOM     19  C   LIG    1        0.812   9.457   0.042  0.00  0.00    +0.050 A 
ATOM     20  C   LIG    1        2.196   9.358   0.029  0.00  0.00    +0.129 A 
ATOM     21  O   LIG    1        2.524   8.048   0.025  0.00  0.00    -0.455 OA
BRANCH  17  27
ATOM     22  C   LIG    1        2.529   5.087   0.004  0.00  0.00    +0.012 A 
ATOM     23  C   LIG    1        2.475   3.717  -0.002  0.00  0.00    +0.015 A 
ATOM     24  C   LIG    1        1.238   3.066   0.007  0.00  0.00    +0.059 A 
ATOM     25  C   LIG    1        0.056   3.811   0.016  0.00  0.00    +0.015 A 
ATOM     26  C   LIG    1        0.108   5.181   0.028  0.00  0.00    +0.012 A 
ATOM     27  C   LIG    1        1.346   5.833   0.019  0.00  0.00    +0.017 A 
BRANCH  24  28
ATOM     28  C   LIG    1        1.181   1.591  -0.001  0.00  0.00    +0.337 C 
ATOM     29  O   LIG    1        2.209   0.943  -0.014  0.00  0.00    -0.245 OA
BRANCH  28  30
ATOM     30  O   LIG    1       -0.011   0.963   0.007  0.00  0.00    -0.477 OA
ATOM     31  H   LIG    1       -0.804   1.462   0.018  0.00  0.00    +0.295 HD
ENDBRANCH  28  30
ENDBRANCH  24  28
ENDBRANCH  17  27
ENDBRANCH   1  20
TORSDOF 5
