REMARK  Name = ZINC06188073
REMARK                            x       y       z     vdW  Elec       q    Type
REMARK                         _______ _______ _______ _____ _____    ______ ____
ROOT
ATOM      1  C   LIG    1       -1.575   4.809   2.709  0.00  0.00    +0.155 C 
ATOM      2  N   LIG    1       -1.452   3.361   2.517  0.00  0.00    -0.281 N 
ATOM      3  C   LIG    1       -1.976   2.491   3.460  0.00  0.00    +0.146 A 
ATOM      4  N   LIG    1       -2.627   2.667   4.611  0.00  0.00    -0.325 N 
ATOM      5  H   LIG    1       -2.868   3.577   5.021  0.00  0.00    +0.169 HD
ATOM      6  C   LIG    1       -2.916   1.493   5.143  0.00  0.00    +0.121 A 
ATOM      7  N   LIG    1       -2.449   0.503   4.333  0.00  0.00    -0.334 N 
ATOM      8  H   LIG    1       -2.527  -0.481   4.489  0.00  0.00    +0.168 HD
ATOM      9  C   LIG    1       -1.846   1.121   3.254  0.00  0.00    +0.147 A 
ATOM     10  C   LIG    1       -1.187   0.661   2.095  0.00  0.00    +0.282 A 
ATOM     11  N   LIG    1       -0.698   1.558   1.213  0.00  0.00    -0.262 N 
ATOM     12  C   LIG    1       -0.013   1.086   0.008  0.00  0.00    +0.157 C 
ATOM     13  O   LIG    1       -1.060  -0.533   1.892  0.00  0.00    -0.265 OA
ATOM     14  C   LIG    1       -0.827   2.879   1.427  0.00  0.00    +0.333 A 
ATOM     15  O   LIG    1       -0.369   3.658   0.613  0.00  0.00    -0.246 OA
ENDROOT
BRANCH   6  16
ATOM     16  C   LIG    1       -3.633   1.288   6.418  0.00  0.00    +0.051 A 
ATOM     17  C   LIG    1       -4.065   2.385   7.164  0.00  0.00    +0.014 A 
ATOM     18  C   LIG    1       -4.735   2.187   8.353  0.00  0.00    +0.001 A 
ATOM     19  C   LIG    1       -4.980   0.902   8.808  0.00  0.00    +0.003 A 
ATOM     20  C   LIG    1       -4.556  -0.191   8.076  0.00  0.00    +0.039 A 
ATOM     21  C   LIG    1       -3.888  -0.007   6.879  0.00  0.00    +0.134 A 
ATOM     22  F   LIG    1       -3.479  -1.075   6.161  0.00  0.00    -0.205 F 
ENDBRANCH   6  16
TORSDOF 1
