REMARK  Name = ZINC05998783
REMARK                            x       y       z     vdW  Elec       q    Type
REMARK                         _______ _______ _______ _____ _____    ______ ____
ROOT
ATOM      1  C   LIG    1       -0.012   4.238   0.025  0.00  0.00    +0.127 A 
ATOM      2  C   LIG    1       -1.221   3.552   0.033  0.00  0.00    +0.092 A 
ATOM      3  C   LIG    1       -1.232   2.169   0.020  0.00  0.00    +0.135 A 
ATOM      4  C   LIG    1       -0.018   1.468   0.010  0.00  0.00    +0.106 A 
ATOM      5  C   LIG    1        1.204   2.163   0.002  0.00  0.00    +0.146 A 
ATOM      6  O   LIG    1        2.380   1.501  -0.013  0.00  0.00    -0.454 OA
ATOM      7  C   LIG    1        2.477   0.156  -0.021  0.00  0.00    +0.139 A 
ATOM      8  C   LIG    1        3.730  -0.449  -0.036  0.00  0.00    +0.047 A 
ATOM      9  C   LIG    1        3.834  -1.823  -0.044  0.00  0.00    +0.004 A 
ATOM     10  C   LIG    1        2.699  -2.619  -0.037  0.00  0.00    +0.001 A 
ATOM     11  C   LIG    1        1.448  -2.041  -0.022  0.00  0.00    +0.015 A 
ATOM     12  C   LIG    1        1.331  -0.652  -0.014  0.00  0.00    +0.065 A 
ATOM     13  C   LIG    1        0.002  -0.004   0.002  0.00  0.00    +0.204 A 
ATOM     14  O   LIG    1       -1.026  -0.656   0.009  0.00  0.00    -0.286 OA
ATOM     15  C   LIG    1        1.192   3.550   0.010  0.00  0.00    +0.092 A 
ENDROOT
BRANCH   1  17
ATOM     16  C   LIG    1       -1.282   6.246   0.048  0.00  0.00    +0.277 C 
ATOM     17  O   LIG    1       -0.009   5.595   0.033  0.00  0.00    -0.495 OA
ENDBRANCH   1  17
BRANCH   3  18
ATOM     18  O   LIG    1       -2.410   1.496   0.022  0.00  0.00    -0.506 OA
ATOM     19  H   LIG    1       -2.414   0.396   0.011  0.00  0.00    +0.292 HD
ENDBRANCH   3  18
TORSDOF 2
