REMARK  Name = ZINC06251082
REMARK                            x       y       z     vdW  Elec       q    Type
REMARK                         _______ _______ _______ _____ _____    ______ ____
ROOT
ATOM      1  C   LIG    1       -1.340  -0.973  -1.113  0.00  0.00    +0.082 A 
ATOM      2  C   LIG    1       -2.543  -0.411  -1.434  0.00  0.00    +0.078 A 
ATOM      3  S   LIG    1       -3.657  -1.741  -1.000  0.00  0.00    -0.041 S 
ATOM      4  C   LIG    1       -2.415  -2.898  -0.440  0.00  0.00    +0.233 A 
ATOM      5  N   LIG    1       -1.307  -2.206  -0.628  0.00  0.00    -0.209 NA
ENDROOT
BRANCH   1  11
ATOM      6  C   LIG    1       -0.128   1.118  -1.720  0.00  0.00    +0.014 A 
ATOM      7  C   LIG    1        1.043   1.826  -1.903  0.00  0.00    +0.050 A 
ATOM      8  C   LIG    1        2.267   1.215  -1.679  0.00  0.00    +0.158 A 
ATOM      9  C   LIG    1        2.319  -0.115  -1.269  0.00  0.00    +0.159 A 
ATOM     10  C   LIG    1        1.149  -0.828  -1.084  0.00  0.00    +0.059 A 
ATOM     11  C   LIG    1       -0.082  -0.212  -1.310  0.00  0.00    +0.005 A 
BRANCH   8  12
ATOM     12  O   LIG    1        3.418   1.915  -1.861  0.00  0.00    -0.503 OA
ATOM     13  H   LIG    1        3.727   2.378  -1.069  0.00  0.00    +0.292 HD
ENDBRANCH   8  12
BRANCH   9  14
ATOM     14  O   LIG    1        3.521  -0.712  -1.050  0.00  0.00    -0.503 OA
ATOM     15  H   LIG    1        3.844  -0.626  -0.143  0.00  0.00    +0.292 HD
ENDBRANCH   9  14
ENDBRANCH   1  11
BRANCH   4  16
ATOM     16  N   LIG    1       -2.574  -4.186   0.056  0.00  0.00    -0.225 N 
ATOM     17  H   LIG    1       -1.796  -4.740   0.225  0.00  0.00    +0.267 HD
BRANCH  16  18
ATOM     18  C   LIG    1       -3.830  -4.674   0.307  0.00  0.00    +0.347 C 
ATOM     19  N   LIG    1       -3.992  -5.951   0.649  0.00  0.00    -0.292 N 
ATOM     20  H   LIG    1       -4.881  -6.296   0.827  0.00  0.00    +0.255 HD
ATOM     21  H   LIG    1       -3.222  -6.536   0.721  0.00  0.00    +0.255 HD
BRANCH  18  22
ATOM     22  N   LIG    1       -4.888  -3.872   0.209  0.00  0.00    -0.292 N 
ATOM     23  H   LIG    1       -5.780  -4.226   0.348  0.00  0.00    +0.255 HD
ATOM     24  H   LIG    1       -4.767  -2.933  -0.002  0.00  0.00    +0.255 HD
ENDBRANCH  18  22
ENDBRANCH  16  18
ENDBRANCH   4  16
TORSDOF 6
