REMARK  Name = ZINC06067611
REMARK                            x       y       z     vdW  Elec       q    Type
REMARK                         _______ _______ _______ _____ _____    ______ ____
ROOT
ATOM      1  C   LIG    1       -0.523   0.966   0.511  0.00  0.00    +0.012 C 
ATOM      2  C   LIG    1       -0.378  -0.553   0.403  0.00  0.00    -0.022 C 
ATOM      3  C   LIG    1       -1.765  -1.198   0.338  0.00  0.00    +0.007 C 
ATOM      4  C   LIG    1       -2.547  -0.889   1.607  0.00  0.00    +0.002 C 
ATOM      5  C   LIG    1       -1.789  -1.444   2.816  0.00  0.00    +0.018 C 
ATOM      6  C   LIG    1       -0.413  -0.782   2.895  0.00  0.00    +0.068 C 
ATOM      7  C   LIG    1        0.344  -1.327   4.107  0.00  0.00    +0.023 C 
ATOM      8  C   LIG    1        0.394  -0.906  -0.875  0.00  0.00    +0.021 C 
ATOM      9  C   LIG    1        1.809  -0.391  -0.747  0.00  0.00    -0.073 C 
ATOM     10  C   LIG    1        2.343   0.352  -1.684  0.00  0.00    +0.008 C 
ATOM     11  C   LIG    1        2.592  -0.758   0.495  0.00  0.00    +0.031 C 
ATOM     12  C   LIG    1        1.747  -0.400   1.721  0.00  0.00    +0.009 C 
ATOM     13  C   LIG    1        0.381  -1.083   1.621  0.00  0.00    +0.012 C 
ENDROOT
BRANCH   6  14
ATOM     14  C   LIG    1       -0.584   0.708   3.039  0.00  0.00    +0.313 C 
ATOM     15  O   LIG    1       -1.691   1.184   3.132  0.00  0.00    -0.250 OA
BRANCH  14  16
ATOM     16  O   LIG    1        0.494   1.508   3.064  0.00  0.00    -0.468 OA
ATOM     17  C   LIG    1        0.255   2.933   3.205  0.00  0.00    +0.280 C 
ENDBRANCH  14  16
ENDBRANCH   6  14
BRANCH   8  18
ATOM     18  C   LIG    1       -0.279  -0.244  -2.079  0.00  0.00    +0.013 C 
BRANCH  18  19
ATOM     19  C   LIG    1        0.303  -0.823  -3.370  0.00  0.00    +0.043 C 
BRANCH  19  20
ATOM     20  C   LIG    1       -0.375  -0.187  -4.556  0.00  0.00    +0.036 C 
ATOM     21  C   LIG    1        0.082   0.868  -5.227  0.00  0.00    +0.024 C 
ATOM     22  C   LIG    1       -0.912   1.152  -6.329  0.00  0.00    +0.260 C 
ATOM     23  O   LIG    1       -1.962   0.154  -6.189  0.00  0.00    -0.457 OA
ATOM     24  C   LIG    1       -1.641  -0.631  -5.144  0.00  0.00    +0.335 C 
ATOM     25  O   LIG    1       -2.303  -1.570  -4.748  0.00  0.00    -0.245 OA
ENDBRANCH  19  20
ENDBRANCH  18  19
ENDBRANCH   8  18
TORSDOF 5
