REMARK  Name = ZINC06777830
REMARK                            x       y       z     vdW  Elec       q    Type
REMARK                         _______ _______ _______ _____ _____    ______ ____
ROOT
ATOM      1  C   LIG    1        3.579   1.774  -0.081  0.00  0.00    +0.161 C 
ATOM      2  C   LIG    1        2.290   1.004  -0.061  0.00  0.00    +0.016 C 
ATOM      3  C   LIG    1        1.101   1.568  -0.073  0.00  0.00    +0.033 C 
ATOM      4  C   LIG    1        0.881   3.053  -0.087  0.00  0.00    +0.028 C 
ATOM      5  C   LIG    1        2.162   3.771  -0.517  0.00  0.00    -0.047 C 
ATOM      6  C   LIG    1        3.328   3.229   0.320  0.00  0.00    +0.091 C 
ENDROOT
BRANCH   6   7
ATOM      7  N   LIG    1        4.530   4.025   0.062  0.00  0.00    -0.311 N 
ATOM      8  H   LIG    1        4.625   4.503  -0.777  0.00  0.00    +0.149 HD
ATOM      9  C   LIG    1        5.505   4.094   0.991  0.00  0.00    +0.210 C 
ATOM     10  C   LIG    1        6.742   4.913   0.726  0.00  0.00    +0.109 C 
ATOM     11  O   LIG    1        5.386   3.497   2.040  0.00  0.00    -0.276 OA
ENDBRANCH   6   7
BRANCH   5  12
ATOM     12  N   LIG    1        2.040   5.223  -0.301  0.00  0.00    +0.381 N 
ATOM     13  H   LIG    1        2.897   5.686  -0.626  0.00  0.00    -0.090 HD
ATOM     14  H   LIG    1        1.913   5.420   0.691  0.00  0.00    -0.090 HD
ATOM     15  H   LIG    1        1.246   5.589  -0.823  0.00  0.00    -0.090 HD
ENDBRANCH   5  12
BRANCH   3  16
ATOM     16  C   LIG    1       -0.080   0.694  -0.065  0.00  0.00    +0.332 C 
ATOM     17  O   LIG    1        0.058  -0.513  -0.054  0.00  0.00    -0.245 OA
BRANCH  16  18
ATOM     18  O   LIG    1       -1.317   1.231  -0.077  0.00  0.00    -0.477 OA
ATOM     19  H   LIG    1       -1.423   2.162  -0.086  0.00  0.00    +0.295 HD
ENDBRANCH  16  18
ENDBRANCH   3  16
BRANCH   1  20
ATOM     20  O   LIG    1        4.496   1.180   0.839  0.00  0.00    -0.368 OA
BRANCH  20  21
ATOM     21  C   LIG    1        5.211   0.062   0.308  0.00  0.00    +0.119 C 
BRANCH  21  23
ATOM     22  C   LIG    1        6.471   1.498  -1.302  0.00  0.00    +0.006 C 
ATOM     23  C   LIG    1        6.603   0.513  -0.139  0.00  0.00    +0.028 C 
ENDBRANCH  21  23
BRANCH  21  24
ATOM     24  C   LIG    1        5.345  -1.016   1.386  0.00  0.00    +0.028 C 
ATOM     25  C   LIG    1        3.959  -1.558   1.740  0.00  0.00    +0.006 C 
ENDBRANCH  21  24
ENDBRANCH  20  21
ENDBRANCH   1  20
TORSDOF 8
