REMARK  Name = ZINC06536276
REMARK                            x       y       z     vdW  Elec       q    Type
REMARK                         _______ _______ _______ _____ _____    ______ ____
ROOT
ATOM      1  C   LIG    1       -1.241   3.403   0.032  0.00  0.00    +0.181 A 
ATOM      2  C   LIG    1       -0.121   4.179   0.061  0.00  0.00    +0.208 A 
ATOM      3  C   LIG    1        1.157   3.562   0.046  0.00  0.00    +0.238 A 
ATOM      4  C   LIG    1        1.198   2.092  -0.001  0.00  0.00    +0.113 A 
ATOM      5  C   LIG    1        2.417   1.400  -0.017  0.00  0.00    +0.135 A 
ATOM      6  C   LIG    1        2.416   0.019  -0.062  0.00  0.00    +0.095 A 
ATOM      7  C   LIG    1        1.214  -0.680  -0.090  0.00  0.00    +0.166 A 
ATOM      8  C   LIG    1        0.002  -0.003  -0.072  0.00  0.00    +0.202 A 
ATOM      9  C   LIG    1       -0.017   1.386  -0.028  0.00  0.00    +0.188 A 
ATOM     10  O   LIG    1        2.181   4.226   0.071  0.00  0.00    -0.283 OA
ATOM     11  O   LIG    1       -1.186   2.061  -0.016  0.00  0.00    -0.447 OA
ENDROOT
BRANCH   1  17
ATOM     12  C   LIG    1       -3.542   3.686  -0.874  0.00  0.00    +0.015 A 
ATOM     13  C   LIG    1       -4.775   4.298  -0.852  0.00  0.00    +0.046 A 
ATOM     14  C   LIG    1       -5.042   5.295   0.080  0.00  0.00    +0.117 A 
ATOM     15  C   LIG    1       -4.067   5.674   0.995  0.00  0.00    +0.046 A 
ATOM     16  C   LIG    1       -2.833   5.063   0.983  0.00  0.00    +0.015 A 
ATOM     17  C   LIG    1       -2.561   4.060   0.049  0.00  0.00    +0.021 A 
BRANCH  14  18
ATOM     18  O   LIG    1       -6.257   5.899   0.095  0.00  0.00    -0.507 OA
ATOM     19  H   LIG    1       -6.470   6.688   0.831  0.00  0.00    +0.292 HD
ENDBRANCH  14  18
ENDBRANCH   1  17
BRANCH   2  20
ATOM     20  O   LIG    1       -0.228   5.535   0.104  0.00  0.00    -0.501 OA
ATOM     21  H   LIG    1        0.679   6.158   0.127  0.00  0.00    +0.292 HD
ENDBRANCH   2  20
BRANCH   5  22
ATOM     22  O   LIG    1        3.590   2.083   0.010  0.00  0.00    -0.506 OA
ATOM     23  H   LIG    1        4.545   1.536  -0.003  0.00  0.00    +0.292 HD
ENDBRANCH   5  22
BRANCH   7  24
ATOM     24  O   LIG    1        1.226  -2.038  -0.133  0.00  0.00    -0.503 OA
ATOM     25  H   LIG    1        0.278  -2.595  -0.155  0.00  0.00    +0.292 HD
ENDBRANCH   7  24
BRANCH   8  26
ATOM     26  O   LIG    1       -1.168  -0.699  -0.100  0.00  0.00    -0.501 OA
ATOM     27  H   LIG    1       -2.128  -0.163  -0.086  0.00  0.00    +0.292 HD
ENDBRANCH   8  26
TORSDOF 6
