REMARK  Name = ZINC06161074
REMARK                            x       y       z     vdW  Elec       q    Type
REMARK                         _______ _______ _______ _____ _____    ______ ____
ROOT
ATOM      1  C   LIG    1        5.207  -1.863  -5.431  0.00  0.00    +0.157 C 
ATOM      2  N   LIG    1        4.398  -1.421  -4.292  0.00  0.00    -0.264 N 
ATOM      3  C   LIG    1        4.972  -1.278  -3.081  0.00  0.00    +0.262 A 
ATOM      4  C   LIG    1        4.196  -0.847  -1.993  0.00  0.00    +0.059 A 
ATOM      5  C   LIG    1        2.866  -0.593  -2.185  0.00  0.00    +0.111 A 
ATOM      6  N   LIG    1        2.323  -0.753  -3.437  0.00  0.00    -0.295 N 
ATOM      7  H   LIG    1        1.381  -0.571  -3.580  0.00  0.00    +0.172 HD
ATOM      8  O   LIG    1        6.158  -1.516  -2.932  0.00  0.00    -0.267 OA
ATOM      9  C   LIG    1        3.090  -1.161  -4.465  0.00  0.00    +0.330 A 
ATOM     10  O   LIG    1        2.592  -1.296  -5.566  0.00  0.00    -0.246 OA
ENDROOT
BRANCH   5  11
ATOM     11  N   LIG    1        2.083  -0.178  -1.139  0.00  0.00    -0.316 N 
ATOM     12  C   LIG    1        0.817  -0.920  -1.101  0.00  0.00    +0.107 C 
ATOM     13  C   LIG    1        0.035  -0.536   0.157  0.00  0.00    +0.023 C 
ATOM     14  C   LIG    1       -0.236   0.971   0.143  0.00  0.00    -0.004 C 
ATOM     15  C   LIG    1        1.097   1.721   0.055  0.00  0.00    +0.023 C 
ATOM     16  C   LIG    1        1.848   1.270  -1.201  0.00  0.00    +0.107 C 
BRANCH  14  17
ATOM     17  C   LIG    1       -0.964   1.372   1.427  0.00  0.00    +0.038 C 
BRANCH  17  18
ATOM     18  C   LIG    1       -1.338   2.830   1.358  0.00  0.00    -0.047 A 
ATOM     19  C   LIG    1       -0.466   3.791   1.834  0.00  0.00    +0.003 A 
ATOM     20  C   LIG    1       -0.808   5.129   1.766  0.00  0.00    +0.000 A 
ATOM     21  C   LIG    1       -2.026   5.505   1.232  0.00  0.00    +0.000 A 
ATOM     22  C   LIG    1       -2.901   4.543   0.761  0.00  0.00    +0.000 A 
ATOM     23  C   LIG    1       -2.557   3.206   0.825  0.00  0.00    +0.003 A 
ENDBRANCH  17  18
ENDBRANCH  14  17
ENDBRANCH   5  11
BRANCH   4  24
ATOM     24  C   LIG    1        4.818  -0.674  -0.632  0.00  0.00    +0.079 C 
BRANCH  24  25
ATOM     25  C   LIG    1        4.824  -1.996   0.090  0.00  0.00    -0.043 A 
ATOM     26  C   LIG    1        3.752  -2.353   0.887  0.00  0.00    +0.004 A 
ATOM     27  C   LIG    1        3.754  -3.568   1.546  0.00  0.00    +0.000 A 
ATOM     28  C   LIG    1        4.833  -4.423   1.416  0.00  0.00    +0.000 A 
ATOM     29  C   LIG    1        5.908  -4.063   0.624  0.00  0.00    +0.000 A 
ATOM     30  C   LIG    1        5.903  -2.850  -0.039  0.00  0.00    +0.004 A 
ENDBRANCH  24  25
ENDBRANCH   4  24
TORSDOF 5
