REMARK  Name = ZINC06116354
REMARK                            x       y       z     vdW  Elec       q    Type
REMARK                         _______ _______ _______ _____ _____    ______ ____
ROOT
ATOM      1  C   LIG    1       -0.753   1.593  -1.231  0.00  0.00    -0.039 C 
ATOM      2  N   LIG    1        0.050   1.122  -2.374  0.00  0.00    +0.386 N 
ATOM      3  H   LIG    1        1.016   1.454  -2.269  0.00  0.00    -0.085 HD
ATOM      4  H   LIG    1        0.041   0.096  -2.395  0.00  0.00    -0.085 HD
ATOM      5  C   LIG    1       -0.505   1.639  -3.640  0.00  0.00    -0.081 C 
ATOM      6  C   LIG    1       -1.929   1.112  -3.833  0.00  0.00    -0.019 C 
ATOM      7  C   LIG    1       -2.801   1.565  -2.658  0.00  0.00    +0.001 C 
ATOM      8  C   LIG    1       -0.130   1.083   0.070  0.00  0.00    -0.008 C 
ATOM      9  C   LIG    1       -0.958   1.576   1.258  0.00  0.00    -0.001 C 
ATOM     10  C   LIG    1       -2.388   1.046   1.137  0.00  0.00    +0.000 C 
ATOM     11  C   LIG    1       -3.012   1.554  -0.165  0.00  0.00    +0.002 C 
ATOM     12  C   LIG    1       -2.183   1.060  -1.352  0.00  0.00    -0.018 C 
ENDROOT
BRANCH   1  16
ATOM     13  C   LIG    1       -0.826   5.864  -1.196  0.00  0.00    +0.000 A 
ATOM     14  C   LIG    1        0.379   5.192  -1.107  0.00  0.00    +0.000 A 
ATOM     15  C   LIG    1        0.403   3.810  -1.118  0.00  0.00    +0.002 A 
ATOM     16  C   LIG    1       -0.779   3.100  -1.218  0.00  0.00    -0.058 A 
ATOM     17  C   LIG    1       -1.983   3.771  -1.313  0.00  0.00    +0.002 A 
ATOM     18  C   LIG    1       -2.007   5.153  -1.297  0.00  0.00    +0.000 A 
ENDBRANCH   1  16
TORSDOF 1
