REMARK  Name = ZINC07999076
REMARK                            x       y       z     vdW  Elec       q    Type
REMARK                         _______ _______ _______ _____ _____    ______ ____
ROOT
ATOM      1  C   LIG    1       -1.333  -0.510  -0.043  0.00  0.00    +0.077 C 
ATOM      2  C   LIG    1       -2.071   0.078   1.163  0.00  0.00    +0.017 C 
ATOM      3  C   LIG    1       -1.435  -0.450   2.451  0.00  0.00    -0.076 C 
ATOM      4  N   LIG    1       -1.531  -1.914   2.483  0.00  0.00    +0.380 N 
ATOM      5  H   LIG    1       -2.499  -2.188   2.402  0.00  0.00    -0.082 HD
ATOM      6  C   LIG    1       -0.766  -2.489   1.370  0.00  0.00    -0.076 C 
ATOM      7  C   LIG    1       -1.377  -2.039   0.041  0.00  0.00    +0.017 C 
ENDROOT
BRANCH   1   9
ATOM      8  C   LIG    1        0.809  -0.578  -1.115  0.00  0.00    +0.194 C 
ATOM      9  O   LIG    1        0.026  -0.070  -0.034  0.00  0.00    -0.376 OA
ENDBRANCH   1   9
BRANCH   1  10
ATOM     10  C   LIG    1       -2.012  -0.050  -1.335  0.00  0.00    +0.143 C 
BRANCH  10  11
ATOM     11  S   LIG    1       -2.052   1.763  -1.383  0.00  0.00    +0.057 S 
ATOM     12  O   LIG    1       -2.955   2.244  -0.397  0.00  0.00    -0.252 OA
BRANCH  11  13
ATOM     13  C   LIG    1       -2.852   2.131  -2.909  0.00  0.00    +0.039 A 
ATOM     14  C   LIG    1       -2.105   2.279  -4.063  0.00  0.00    +0.017 A 
ATOM     15  C   LIG    1       -2.733   2.567  -5.261  0.00  0.00    +0.001 A 
ATOM     16  C   LIG    1       -4.108   2.708  -5.304  0.00  0.00    +0.000 A 
ATOM     17  C   LIG    1       -4.854   2.560  -4.150  0.00  0.00    +0.001 A 
ATOM     18  C   LIG    1       -4.227   2.267  -2.954  0.00  0.00    +0.017 A 
ENDBRANCH  11  13
ENDBRANCH  10  11
ENDBRANCH   1  10
BRANCH   4  19
ATOM     19  C   LIG    1       -0.990  -2.411   3.755  0.00  0.00    -0.074 C 
BRANCH  19  20
ATOM     20  C   LIG    1       -1.203  -3.923   3.844  0.00  0.00    +0.019 C 
BRANCH  20  21
ATOM     21  C   LIG    1       -0.647  -4.433   5.149  0.00  0.00    -0.024 A 
ATOM     22  C   LIG    1        0.576  -4.947   5.350  0.00  0.00    +0.087 A 
ATOM     23  N   LIG    1        0.724  -5.301   6.663  0.00  0.00    -0.360 N 
ATOM     24  C   LIG    1       -0.432  -5.017   7.358  0.00  0.00    +0.047 A 
ATOM     25  C   LIG    1       -0.811  -5.174   8.686  0.00  0.00    +0.029 A 
ATOM     26  C   LIG    1       -2.063  -4.772   9.096  0.00  0.00    +0.040 A 
ATOM     27  C   LIG    1       -2.962  -4.221   8.191  0.00  0.00    +0.124 A 
ATOM     28  F   LIG    1       -4.189  -3.839   8.609  0.00  0.00    -0.205 F 
ATOM     29  C   LIG    1       -2.608  -4.060   6.868  0.00  0.00    +0.048 A 
ATOM     30  H   LIG    1        1.523  -5.695   7.048  0.00  0.00    +0.165 HD
ATOM     31  C   LIG    1       -1.339  -4.455   6.441  0.00  0.00    +0.005 A 
ENDBRANCH  20  21
ENDBRANCH  19  20
ENDBRANCH   4  19
TORSDOF 7
