REMARK  Name = ZINC05998558
REMARK                            x       y       z     vdW  Elec       q    Type
REMARK                         _______ _______ _______ _____ _____    ______ ____
ROOT
ATOM      1  C   LIG    1       -0.788   2.894   1.347  0.00  0.00    +0.204 A 
ATOM      2  C   LIG    1       -1.893   3.572   0.836  0.00  0.00    +0.166 A 
ATOM      3  C   LIG    1       -2.015   4.943   0.994  0.00  0.00    +0.096 A 
ATOM      4  C   LIG    1       -1.033   5.655   1.666  0.00  0.00    +0.146 A 
ATOM      5  C   LIG    1        0.084   4.976   2.182  0.00  0.00    +0.109 A 
ATOM      6  C   LIG    1        1.114   5.754   2.891  0.00  0.00    +0.197 A 
ATOM      7  C   LIG    1        0.910   7.150   3.007  0.00  0.00    +0.098 A 
ATOM      8  C   LIG    1       -0.206   7.711   2.472  0.00  0.00    +0.139 A 
ATOM      9  O   LIG    1        2.104   5.216   3.359  0.00  0.00    -0.287 OA
ATOM     10  O   LIG    1       -1.138   6.992   1.828  0.00  0.00    -0.454 OA
ATOM     11  C   LIG    1        0.201   3.589   2.024  0.00  0.00    +0.177 A 
ENDROOT
BRANCH   8  12
ATOM     12  C   LIG    1       -0.401   9.169   2.604  0.00  0.00    +0.017 A 
ATOM     13  C   LIG    1        0.548   9.946   3.273  0.00  0.00    +0.011 A 
ATOM     14  C   LIG    1        0.362  11.308   3.387  0.00  0.00    +0.001 A 
ATOM     15  C   LIG    1       -0.766  11.903   2.852  0.00  0.00    +0.000 A 
ATOM     16  C   LIG    1       -1.712  11.139   2.192  0.00  0.00    +0.001 A 
ATOM     17  C   LIG    1       -1.537   9.777   2.065  0.00  0.00    +0.011 A 
ENDBRANCH   8  12
BRANCH   1  19
ATOM     18  C   LIG    1       -0.013   1.086   0.008  0.00  0.00    +0.277 C 
ATOM     19  O   LIG    1       -0.682   1.547   1.184  0.00  0.00    -0.488 OA
ENDBRANCH   1  19
BRANCH   2  20
ATOM     20  O   LIG    1       -2.860   2.882   0.177  0.00  0.00    -0.503 OA
ATOM     21  H   LIG    1       -3.735   3.412  -0.228  0.00  0.00    +0.292 HD
ENDBRANCH   2  20
BRANCH  11  22
ATOM     22  O   LIG    1        1.277   2.931   2.528  0.00  0.00    -0.503 OA
ATOM     23  H   LIG    1        2.060   3.487   3.066  0.00  0.00    +0.292 HD
ENDBRANCH  11  22
TORSDOF 4
