REMARK  Name = ZINC06067429
REMARK                            x       y       z     vdW  Elec       q    Type
REMARK                         _______ _______ _______ _____ _____    ______ ____
ROOT
ATOM      1  C   LIG    1        1.122   3.898  -1.245  0.00  0.00    +0.037 C 
ATOM      2  C   LIG    1        0.640   3.173   0.013  0.00  0.00    +0.116 C 
ATOM      3  C   LIG    1       -0.869   3.083   0.027  0.00  0.00    -0.001 A 
ATOM      4  C   LIG    1       -1.859   4.034   0.041  0.00  0.00    +0.017 A 
ATOM      5  C   LIG    1       -3.201   3.640   0.051  0.00  0.00    -0.001 A 
ATOM      6  C   LIG    1       -3.519   2.279   0.047  0.00  0.00    +0.011 A 
ATOM      7  C   LIG    1       -2.519   1.335   0.033  0.00  0.00    +0.024 A 
ATOM      8  C   LIG    1       -1.179   1.727   0.017  0.00  0.00    +0.038 A 
ATOM      9  N   LIG    1       -0.011   0.966   0.007  0.00  0.00    -0.284 N 
ATOM     10  H   LIG    1       -0.070  -0.133   0.006  0.00  0.00    +0.155 HD
ATOM     11  C   LIG    1        1.094   1.729   0.001  0.00  0.00    +0.237 C 
ATOM     12  O   LIG    1        2.241   1.335  -0.012  0.00  0.00    -0.274 OA
ENDROOT
BRANCH   5  13
ATOM     13  C   LIG    1       -4.273   4.653   0.066  0.00  0.00    +0.077 C 
ATOM     14  N   LIG    1       -3.943   5.894   0.074  0.00  0.00    -0.183 NA
ATOM     15  N   LIG    1       -4.837   6.957   0.078  0.00  0.00    -0.198 N 
ATOM     16  H   LIG    1       -4.521   7.942  -0.295  0.00  0.00    +0.178 HD
ATOM     17  C   LIG    1       -6.100   6.845   0.523  0.00  0.00    +0.292 C 
ATOM     18  S   LIG    1       -6.685   5.292   1.122  0.00  0.00    -0.060 S 
ATOM     19  O   LIG    1       -6.838   7.811   0.513  0.00  0.00    -0.261 OA
ATOM     20  C   LIG    1       -5.702   4.186   0.077  0.00  0.00    +0.136 C 
ENDBRANCH   5  13
BRANCH   2  21
ATOM     21  S   LIG    1        1.243   4.017   1.501  0.00  0.00    -0.144 S 
ATOM     22  C   LIG    1        3.049   3.922   1.357  0.00  0.00    +0.085 C 
ENDBRANCH   2  21
TORSDOF 2
