REMARK  Name = ZINC06398231
REMARK                            x       y       z     vdW  Elec       q    Type
REMARK                         _______ _______ _______ _____ _____    ______ ____
ROOT
ATOM      1  N   LIG    1        0.020   1.466  -0.002  0.00  0.00    +0.382 N 
ATOM      2  H   LIG    1       -0.405   1.682   0.908  0.00  0.00    -0.081 HD
ENDROOT
BRANCH   1   3
ATOM      3  C   LIG    1        0.072  -0.001  -0.171  0.00  0.00    -0.064 C 
ATOM      4  C   LIG    1       -1.350  -0.567  -0.084  0.00  0.00    -0.010 C 
ATOM      5  C   LIG    1       -1.301  -2.058  -0.428  0.00  0.00    +0.042 C 
ATOM      6  C   LIG    1       -0.228  -2.737   0.371  0.00  0.00    -0.002 C 
ATOM      7  C   LIG    1        0.747  -2.098   0.979  0.00  0.00    -0.016 C 
ATOM      8  C   LIG    1        0.906  -0.606   0.960  0.00  0.00    +0.013 C 
BRANCH   6   9
ATOM      9  C   LIG    1       -0.267  -4.165   0.476  0.00  0.00    -0.074 C 
ATOM     10  C   LIG    1       -0.300  -5.335   0.563  0.00  0.00    +0.009 C 
ENDBRANCH   6   9
ENDBRANCH   1   3
BRANCH   1  11
ATOM     11  C   LIG    1        1.386   2.029  -0.040  0.00  0.00    -0.079 C 
BRANCH  11  13
ATOM     12  C   LIG    1        2.764   4.015   0.592  0.00  0.00    +0.002 C 
ATOM     13  C   LIG    1        1.340   3.469   0.475  0.00  0.00    -0.022 C 
ENDBRANCH  11  13
ENDBRANCH   1  11
BRANCH   1  14
ATOM     14  C   LIG    1       -0.804   2.069  -1.071  0.00  0.00    -0.079 C 
BRANCH  14  15
ATOM     15  C   LIG    1       -0.316   1.612  -2.447  0.00  0.00    -0.022 C 
ATOM     16  C   LIG    1       -1.096   2.350  -3.536  0.00  0.00    +0.002 C 
ENDBRANCH  14  15
ENDBRANCH   1  14
TORSDOF 6
