REMARK  Name = ZINC05924106
REMARK                            x       y       z     vdW  Elec       q    Type
REMARK                         _______ _______ _______ _____ _____    ______ ____
ROOT
ATOM      1  C   LIG    1        0.718  -0.497  -1.257  0.00  0.00    +0.188 C 
ATOM      2  C   LIG    1        0.754  -2.005  -1.260  0.00  0.00    +0.008 A 
ATOM      3  C   LIG    1       -0.434  -2.709  -1.493  0.00  0.00    +0.035 A 
ATOM      4  C   LIG    1       -0.436  -4.087  -1.493  0.00  0.00    +0.071 A 
ATOM      5  N   LIG    1        0.726  -4.767  -1.260  0.00  0.00    -0.302 N 
ATOM      6  C   LIG    1        0.446  -6.208  -1.313  0.00  0.00    +0.162 C 
ATOM      7  C   LIG    1       -1.026  -6.347  -1.606  0.00  0.00    +0.000 A 
ATOM      8  C   LIG    1       -1.837  -7.428  -1.765  0.00  0.00    +0.021 A 
ATOM      9  C   LIG    1       -3.200  -7.201  -2.037  0.00  0.00    +0.042 A 
ATOM     10  C   LIG    1       -4.098  -8.272  -2.212  0.00  0.00    +0.126 A 
ATOM     11  C   LIG    1       -5.424  -8.006  -2.474  0.00  0.00    +0.046 A 
ATOM     12  C   LIG    1       -5.880  -6.694  -2.568  0.00  0.00    +0.006 A 
ATOM     13  C   LIG    1       -5.034  -5.641  -2.403  0.00  0.00    +0.028 A 
ATOM     14  C   LIG    1       -3.671  -5.867  -2.133  0.00  0.00    +0.075 A 
ATOM     15  N   LIG    1       -2.828  -4.847  -1.968  0.00  0.00    -0.245 NA
ATOM     16  C   LIG    1        1.875  -4.102  -1.033  0.00  0.00    +0.259 A 
ATOM     17  O   LIG    1        2.901  -4.727  -0.819  0.00  0.00    -0.267 OA
ATOM     18  C   LIG    1       -1.544  -5.046  -1.712  0.00  0.00    +0.093 A 
ATOM     19  C   LIG    1        1.907  -2.692  -1.040  0.00  0.00    +0.061 A 
ATOM     20  C   LIG    1        3.227  -2.002  -0.820  0.00  0.00    +0.273 C 
ATOM     21  O   LIG    1        3.031  -0.626  -0.491  0.00  0.00    -0.457 OA
ATOM     22  C   LIG    1        2.137   0.025  -1.270  0.00  0.00    +0.344 C 
ATOM     23  O   LIG    1        2.456   0.976  -1.942  0.00  0.00    -0.247 OA
ENDROOT
BRANCH   1  25
ATOM     24  C   LIG    1       -0.019   1.526   0.010  0.00  0.00    +0.007 C 
ATOM     25  C   LIG    1        0.002  -0.004   0.002  0.00  0.00    +0.048 C 
ENDBRANCH   1  25
BRANCH   1  26
ATOM     26  O   LIG    1        0.025  -0.030  -2.416  0.00  0.00    -0.373 OA
ATOM     27  H   LIG    1       -0.030   0.933  -2.479  0.00  0.00    +0.211 HD
ENDBRANCH   1  26
BRANCH  10  28
ATOM     28  O   LIG    1       -3.662  -9.554  -2.123  0.00  0.00    -0.506 OA
ATOM     29  H   LIG    1       -3.364  -9.927  -2.964  0.00  0.00    +0.292 HD
ENDBRANCH  10  28
TORSDOF 3
