REMARK  Name = ZINC06716152
REMARK                            x       y       z     vdW  Elec       q    Type
REMARK                         _______ _______ _______ _____ _____    ______ ____
ROOT
ATOM      1  N   LIG    1        0.116   1.585   4.137  0.00  0.00    -0.259 N 
ATOM      2  C   LIG    1       -0.018   0.422   4.851  0.00  0.00    +0.081 A 
ATOM      3  C   LIG    1       -0.048  -0.631   3.918  0.00  0.00    +0.028 A 
ATOM      4  C   LIG    1        0.079  -0.011   2.594  0.00  0.00    +0.104 A 
ATOM      5  C   LIG    1       -0.178  -1.949   4.361  0.00  0.00    +0.012 A 
ATOM      6  C   LIG    1       -0.277  -2.208   5.698  0.00  0.00    +0.001 A 
ATOM      7  C   LIG    1       -0.248  -1.173   6.623  0.00  0.00    +0.014 A 
ATOM      8  C   LIG    1       -0.120   0.134   6.210  0.00  0.00    +0.080 A 
ATOM      9  N   LIG    1        0.177   1.284   2.772  0.00  0.00    -0.170 NA
ENDROOT
BRANCH   4  10
ATOM     10  C   LIG    1        0.098  -0.720   1.293  0.00  0.00    +0.044 A 
ATOM     11  C   LIG    1       -0.834  -1.723   1.030  0.00  0.00    +0.017 A 
ATOM     12  C   LIG    1       -0.814  -2.381  -0.182  0.00  0.00    +0.046 A 
ATOM     13  C   LIG    1        0.133  -2.047  -1.143  0.00  0.00    +0.120 A 
ATOM     14  C   LIG    1        1.059  -1.046  -0.891  0.00  0.00    +0.091 A 
ATOM     15  C   LIG    1        1.050  -0.384   0.325  0.00  0.00    +0.130 A 
BRANCH  13  16
ATOM     16  O   LIG    1        0.146  -2.698  -2.335  0.00  0.00    -0.507 OA
ATOM     17  H   LIG    1       -0.402  -2.285  -3.015  0.00  0.00    +0.292 HD
ENDBRANCH  13  16
BRANCH  15  18
ATOM     18  O   LIG    1        1.961   0.593   0.576  0.00  0.00    -0.506 OA
ATOM     19  H   LIG    1        2.777   0.274   0.984  0.00  0.00    +0.292 HD
ENDBRANCH  15  18
ENDBRANCH   4  10
BRANCH   8  20
ATOM     20  C   LIG    1       -0.090   1.249   7.224  0.00  0.00    +0.419 C 
ATOM     21  F   LIG    1       -1.224   2.053   7.066  0.00  0.00    -0.166 F 
ATOM     22  F   LIG    1        1.060   2.021   7.033  0.00  0.00    -0.166 F 
ATOM     23  F   LIG    1       -0.079   0.706   8.513  0.00  0.00    -0.166 F 
ENDBRANCH   8  20
BRANCH   1  24
ATOM     24  C   LIG    1        0.189   2.930   4.713  0.00  0.00    +0.171 C 
BRANCH  24  26
ATOM     25  C   LIG    1        2.054   4.453   4.310  0.00  0.00    +0.006 C 
ATOM     26  C   LIG    1        1.633   3.338   4.853  0.00  0.00    -0.012 C 
ENDBRANCH  24  26
ENDBRANCH   1  24
TORSDOF 6
