REMARK  Name = ZINC06475812
REMARK                            x       y       z     vdW  Elec       q    Type
REMARK                         _______ _______ _______ _____ _____    ______ ____
ROOT
ATOM      1  O   LIG    1        2.982  -2.036  -1.920  0.00  0.00    -0.373 OA
ENDROOT
BRANCH   1   3
ATOM      2  C   LIG    1        3.711  -0.707  -0.038  0.00  0.00    -0.012 C 
ATOM      3  C   LIG    1        4.019  -1.166  -1.464  0.00  0.00    +0.109 C 
ATOM      4  C   LIG    1        5.356  -1.913  -1.477  0.00  0.00    +0.028 C 
ATOM      5  C   LIG    1        5.285  -3.084  -0.493  0.00  0.00    -0.017 C 
ATOM      6  C   LIG    1        4.930  -2.554   0.897  0.00  0.00    -0.082 C 
ATOM      7  N   LIG    1        3.630  -1.875   0.848  0.00  0.00    +0.385 N 
ATOM      8  H   LIG    1        2.931  -2.513   0.499  0.00  0.00    -0.085 HD
ATOM      9  H   LIG    1        3.374  -1.574   1.777  0.00  0.00    -0.085 HD
BRANCH   2  13
ATOM     10  C   LIG    1       -0.017   1.378   0.010  0.00  0.00    +0.000 A 
ATOM     11  C   LIG    1        1.171   2.086   0.002  0.00  0.00    +0.000 A 
ATOM     12  C   LIG    1        2.377   1.411  -0.013  0.00  0.00    +0.002 A 
ATOM     13  C   LIG    1        2.396   0.029  -0.020  0.00  0.00    -0.059 A 
ATOM     14  C   LIG    1        1.208  -0.679  -0.012  0.00  0.00    +0.002 A 
ATOM     15  C   LIG    1        0.002  -0.004   0.002  0.00  0.00    +0.000 A 
ENDBRANCH   2  13
ENDBRANCH   1   3
BRANCH   1  16
ATOM     16  C   LIG    1        2.765  -1.993  -3.332  0.00  0.00    +0.195 C 
BRANCH  16  17
ATOM     17  C   LIG    1        1.655  -2.944  -3.700  0.00  0.00    -0.021 A 
ATOM     18  C   LIG    1        1.947  -4.258  -4.013  0.00  0.00    +0.018 A 
ATOM     19  C   LIG    1        0.929  -5.130  -4.350  0.00  0.00    +0.056 A 
ATOM     20  C   LIG    1       -0.381  -4.689  -4.373  0.00  0.00    +0.024 A 
ATOM     21  C   LIG    1       -0.672  -3.374  -4.059  0.00  0.00    +0.056 A 
ATOM     22  C   LIG    1        0.345  -2.503  -3.718  0.00  0.00    +0.018 A 
BRANCH  19  23
ATOM     23  C   LIG    1        1.247  -6.563  -4.692  0.00  0.00    +0.417 C 
ATOM     24  F   LIG    1        2.523  -6.635  -5.261  0.00  0.00    -0.166 F 
ATOM     25  F   LIG    1        0.302  -7.045  -5.605  0.00  0.00    -0.166 F 
ATOM     26  F   LIG    1        1.210  -7.340  -3.529  0.00  0.00    -0.166 F 
ENDBRANCH  19  23
BRANCH  21  27
ATOM     27  C   LIG    1       -2.100  -2.892  -4.086  0.00  0.00    +0.417 C 
ATOM     28  F   LIG    1       -2.224  -1.852  -5.013  0.00  0.00    -0.166 F 
ATOM     29  F   LIG    1       -2.459  -2.430  -2.815  0.00  0.00    -0.166 F 
ATOM     30  F   LIG    1       -2.942  -3.948  -4.453  0.00  0.00    -0.166 F 
ENDBRANCH  21  27
ENDBRANCH  16  17
ENDBRANCH   1  16
TORSDOF 6
