REMARK  Name = ZINC08438023
REMARK                            x       y       z     vdW  Elec       q    Type
REMARK                         _______ _______ _______ _____ _____    ______ ____
ROOT
ATOM      1  C   LIG    1        5.576  -5.822  -6.553  0.00  0.00    +0.136 A 
ATOM      2  N   LIG    1        4.796  -4.847  -6.961  0.00  0.00    -0.233 NA
ATOM      3  C   LIG    1        4.091  -4.075  -6.103  0.00  0.00    +0.080 A 
ATOM      4  C   LIG    1        3.222  -3.002  -6.410  0.00  0.00    +0.031 A 
ATOM      5  C   LIG    1        2.577  -2.315  -5.416  0.00  0.00    +0.025 A 
ATOM      6  C   LIG    1        2.751  -2.646  -4.074  0.00  0.00    +0.035 A 
ATOM      7  C   LIG    1        3.601  -3.691  -3.739  0.00  0.00    +0.040 A 
ATOM      8  C   LIG    1        4.245  -4.384  -4.733  0.00  0.00    +0.042 A 
ATOM      9  S   LIG    1        5.382  -5.749  -4.778  0.00  0.00    -0.061 S 
ENDROOT
BRANCH   6  10
ATOM     10  N   LIG    1        2.080  -1.929  -3.074  0.00  0.00    -0.283 N 
ATOM     11  H   LIG    1        1.898  -0.984  -3.195  0.00  0.00    +0.155 HD
BRANCH  10  12
ATOM     12  C   LIG    1        1.678  -2.568  -1.918  0.00  0.00    +0.225 A 
ATOM     13  N   LIG    1        1.829  -3.884  -1.799  0.00  0.00    -0.181 NA
ATOM     14  C   LIG    1        1.442  -4.499  -0.685  0.00  0.00    +0.224 A 
ATOM     15  N   LIG    1        0.910  -3.797   0.311  0.00  0.00    -0.181 NA
ATOM     16  C   LIG    1        0.755  -2.483   0.190  0.00  0.00    +0.224 A 
ATOM     17  N   LIG    1        1.141  -1.868  -0.923  0.00  0.00    -0.181 NA
BRANCH  14  18
ATOM     18  N   LIG    1        1.598  -5.864  -0.562  0.00  0.00    -0.299 N 
ATOM     19  C   LIG    1        0.317  -6.515  -0.185  0.00  0.00    +0.108 C 
ATOM     20  C   LIG    1        0.533  -7.991  -0.603  0.00  0.00    +0.020 C 
ATOM     21  C   LIG    1        1.342  -7.865  -1.914  0.00  0.00    +0.020 C 
ATOM     22  C   LIG    1        1.995  -6.471  -1.851  0.00  0.00    +0.108 C 
ENDBRANCH  14  18
BRANCH  16  23
ATOM     23  N   LIG    1        0.198  -1.756   1.222  0.00  0.00    -0.299 N 
ATOM     24  C   LIG    1        0.125  -0.312   0.878  0.00  0.00    +0.108 C 
ATOM     25  C   LIG    1        0.013   0.409   2.238  0.00  0.00    +0.020 C 
ATOM     26  C   LIG    1        0.630  -0.571   3.261  0.00  0.00    +0.020 C 
ATOM     27  C   LIG    1        1.061  -1.800   2.431  0.00  0.00    +0.108 C 
ENDBRANCH  16  23
ENDBRANCH  10  12
ENDBRANCH   6  10
BRANCH   1  28
ATOM     28  S   LIG    1        6.563  -6.923  -7.512  0.00  0.00    -0.089 S 
BRANCH  28  29
ATOM     29  C   LIG    1        6.184  -6.316  -9.175  0.00  0.00    +0.172 C 
BRANCH  29  32
ATOM     30  N   LIG    1        6.811  -6.860 -11.505  0.00  0.00    -0.311 N 
ATOM     31  H   LIG    1        6.233  -6.138 -11.796  0.00  0.00    +0.149 HD
ATOM     32  C   LIG    1        6.939  -7.133 -10.191  0.00  0.00    +0.223 C 
ATOM     33  O   LIG    1        7.663  -8.036  -9.827  0.00  0.00    -0.275 OA
BRANCH  30  34
ATOM     34  C   LIG    1        7.546  -7.654 -12.493  0.00  0.00    +0.145 C 
BRANCH  34  35
ATOM     35  C   LIG    1        7.225  -7.142 -13.899  0.00  0.00    +0.247 C 
BRANCH  35  36
ATOM     36  O   LIG    1        7.718  -5.808 -14.043  0.00  0.00    -0.490 OA
BRANCH  36  40
ATOM     37  C   LIG    1        7.099  -3.968 -17.683  0.00  0.00    +0.000 A 
ATOM     38  C   LIG    1        7.758  -3.293 -16.672  0.00  0.00    +0.004 A 
ATOM     39  C   LIG    1        7.967  -3.907 -15.452  0.00  0.00    +0.045 A 
ATOM     40  C   LIG    1        7.514  -5.202 -15.242  0.00  0.00    +0.121 A 
ATOM     41  C   LIG    1        6.859  -5.879 -16.261  0.00  0.00    +0.045 A 
ATOM     42  C   LIG    1        6.648  -5.258 -17.477  0.00  0.00    +0.004 A 
ENDBRANCH  36  40
ENDBRANCH  35  36
ENDBRANCH  34  35
ENDBRANCH  30  34
ENDBRANCH  29  32
ENDBRANCH  28  29
ENDBRANCH   1  28
TORSDOF 11
