REMARK  Name = ZINC05912553
REMARK                            x       y       z     vdW  Elec       q    Type
REMARK                         _______ _______ _______ _____ _____    ______ ____
ROOT
ATOM      1  C   LIG    1       -4.215  -0.237  -2.574  0.00  0.00    +0.120 C 
ATOM      2  C   LIG    1       -5.657  -0.690  -2.548  0.00  0.00    -0.006 A 
ATOM      3  C   LIG    1       -6.785  -0.182  -1.938  0.00  0.00    +0.008 A 
ATOM      4  C   LIG    1       -8.001  -0.822  -2.094  0.00  0.00    +0.015 A 
ATOM      5  C   LIG    1       -8.085  -1.971  -2.861  0.00  0.00    +0.018 A 
ATOM      6 BR   LIG    1       -9.748  -2.846  -3.072  0.00  0.00    -0.050 Br
ATOM      7  C   LIG    1       -6.953  -2.479  -3.473  0.00  0.00    +0.021 A 
ATOM      8  C   LIG    1       -5.741  -1.840  -3.317  0.00  0.00    -0.015 A 
ATOM      9  C   LIG    1       -4.354  -2.132  -3.840  0.00  0.00    +0.197 C 
ATOM     10  O   LIG    1       -3.610  -0.909  -3.694  0.00  0.00    -0.360 OA
ENDROOT
BRANCH   1  11
ATOM     11  C   LIG    1       -4.141   1.256  -2.762  0.00  0.00    -0.011 A 
ATOM     12  C   LIG    1       -4.092   2.090  -1.660  0.00  0.00    +0.009 A 
ATOM     13  C   LIG    1       -4.024   3.459  -1.832  0.00  0.00    +0.039 A 
ATOM     14  C   LIG    1       -4.005   3.997  -3.108  0.00  0.00    +0.123 A 
ATOM     15  F   LIG    1       -3.939   5.335  -3.276  0.00  0.00    -0.205 F 
ATOM     16  C   LIG    1       -4.055   3.161  -4.210  0.00  0.00    +0.039 A 
ATOM     17  C   LIG    1       -4.117   1.791  -4.037  0.00  0.00    +0.009 A 
ENDBRANCH   1  11
BRANCH   1  18
ATOM     18  C   LIG    1       -3.513  -0.640  -1.275  0.00  0.00    +0.043 C 
BRANCH  18  19
ATOM     19  C   LIG    1       -2.078  -0.110  -1.286  0.00  0.00    -0.015 C 
BRANCH  19  20
ATOM     20  C   LIG    1       -1.376  -0.512   0.012  0.00  0.00    -0.079 C 
BRANCH  20  22
ATOM     21  C   LIG    1       -0.018   1.465   0.010  0.00  0.00    -0.097 C 
ATOM     22  N   LIG    1        0.002  -0.004   0.002  0.00  0.00    +0.376 N 
ATOM     23  H   LIG    1        0.474  -0.330  -0.828  0.00  0.00    -0.083 HD
ATOM     24  C   LIG    1        0.713  -0.491   1.192  0.00  0.00    -0.097 C 
ENDBRANCH  20  22
ENDBRANCH  19  20
ENDBRANCH  18  19
ENDBRANCH   1  18
TORSDOF 5
