REMARK  Name = ZINC06222594
REMARK                            x       y       z     vdW  Elec       q    Type
REMARK                         _______ _______ _______ _____ _____    ______ ____
ROOT
ATOM      1  N   LIG    1       -2.851   1.640   0.036  0.00  0.00    +0.382 N 
ATOM      2  H   LIG    1       -2.764   2.663   0.041  0.00  0.00    -0.081 HD
ATOM      3  C   LIG    1       -2.185   1.096   1.239  0.00  0.00    -0.077 C 
ATOM      4  C   LIG    1       -0.732   1.581   1.266  0.00  0.00    +0.003 C 
ATOM      5  C   LIG    1       -0.013   1.086   0.008  0.00  0.00    +0.067 C 
ATOM      6  C   LIG    1       -0.756   1.594  -1.230  0.00  0.00    +0.003 C 
ATOM      7  C   LIG    1       -2.207   1.109  -1.184  0.00  0.00    -0.077 C 
ENDROOT
BRANCH   5   8
ATOM      8  N   LIG    1        1.361   1.594  -0.002  0.00  0.00    -0.340 N 
ATOM      9  H   LIG    1        1.573   2.410  -0.482  0.00  0.00    +0.146 HD
BRANCH   8  10
ATOM     10  C   LIG    1        2.353   0.913   0.669  0.00  0.00    +0.045 A 
ATOM     11  C   LIG    1        2.076  -0.240   1.358  0.00  0.00    +0.115 A 
ATOM     12  C   LIG    1        3.106  -0.912   2.028  0.00  0.00    +0.339 A 
ATOM     13  O   LIG    1        4.369  -0.456   2.025  0.00  0.00    -0.422 OA
ATOM     14  C   LIG    1        4.716   0.674   1.372  0.00  0.00    +0.141 A 
ATOM     15  C   LIG    1        6.028   1.127   1.385  0.00  0.00    +0.047 A 
ATOM     16  C   LIG    1        6.364   2.284   0.713  0.00  0.00    +0.004 A 
ATOM     17  C   LIG    1        5.402   3.005   0.022  0.00  0.00    +0.001 A 
ATOM     18  C   LIG    1        4.094   2.573  -0.002  0.00  0.00    +0.013 A 
ATOM     19  O   LIG    1        2.848  -1.938   2.633  0.00  0.00    -0.245 OA
ATOM     20  C   LIG    1        3.741   1.404   0.673  0.00  0.00    +0.038 A 
ENDBRANCH   8  10
ENDBRANCH   5   8
BRANCH   1  21
ATOM     21  C   LIG    1       -4.284   1.280   0.048  0.00  0.00    -0.051 C 
BRANCH  21  23
ATOM     22  C   LIG    1       -5.907   2.390   1.517  0.00  0.00    +0.002 C 
ATOM     23  C   LIG    1       -4.859   1.585   1.406  0.00  0.00    -0.045 C 
BRANCH  22  27
ATOM     24  C   LIG    1       -7.529   3.250   5.347  0.00  0.00    +0.000 A 
ATOM     25  C   LIG    1       -8.097   3.811   4.217  0.00  0.00    +0.001 A 
ATOM     26  C   LIG    1       -7.575   3.535   2.970  0.00  0.00    +0.008 A 
ATOM     27  C   LIG    1       -6.471   2.689   2.850  0.00  0.00    -0.025 A 
ATOM     28  C   LIG    1       -5.907   2.123   3.993  0.00  0.00    +0.008 A 
ATOM     29  C   LIG    1       -6.435   2.411   5.235  0.00  0.00    +0.001 A 
ENDBRANCH  22  27
ENDBRANCH  21  23
ENDBRANCH   1  21
TORSDOF 5
