REMARK  Name = ZINC05996428
REMARK                            x       y       z     vdW  Elec       q    Type
REMARK                         _______ _______ _______ _____ _____    ______ ____
ROOT
ATOM      1  C   LIG    1       -2.696  -2.636  -0.110  0.00  0.00    +0.018 A 
ATOM      2  C   LIG    1       -3.387  -3.005   1.029  0.00  0.00    +0.009 A 
ATOM      3  C   LIG    1       -4.669  -3.512   0.929  0.00  0.00    +0.004 A 
ATOM      4  C   LIG    1       -5.260  -3.663  -0.312  0.00  0.00    +0.048 A 
ATOM      5  C   LIG    1       -4.568  -3.300  -1.457  0.00  0.00    +0.152 A 
ATOM      6  C   LIG    1       -3.282  -2.785  -1.354  0.00  0.00    +0.170 A 
ATOM      7  F   LIG    1       -2.604  -2.429  -2.468  0.00  0.00    -0.201 F 
ENDROOT
BRANCH   5   8
ATOM      8  O   LIG    1       -5.147  -3.446  -2.678  0.00  0.00    -0.504 OA
ATOM      9  H   LIG    1       -4.983  -4.306  -3.090  0.00  0.00    +0.292 HD
ENDBRANCH   5   8
BRANCH   1  10
ATOM     10  C   LIG    1       -1.300  -2.078   0.003  0.00  0.00    +0.130 C 
BRANCH  10  11
ATOM     11  O   LIG    1       -0.701  -2.537   1.216  0.00  0.00    -0.389 OA
ATOM     12  H   LIG    1       -1.179  -2.276   2.015  0.00  0.00    +0.210 HD
ENDBRANCH  10  11
BRANCH  10  13
ATOM     13  C   LIG    1       -1.362  -0.549   0.012  0.00  0.00    -0.046 C 
BRANCH  13  15
ATOM     14  C   LIG    1       -0.018   1.465   0.010  0.00  0.00    -0.100 C 
ATOM     15  N   LIG    1        0.011  -0.010   0.002  0.00  0.00    +0.379 N 
ATOM     16  H   LIG    1        0.496  -0.335  -0.843  0.00  0.00    -0.086 HD
ATOM     17  H   LIG    1        0.512  -0.344   0.834  0.00  0.00    -0.086 HD
ENDBRANCH  13  15
ENDBRANCH  10  13
ENDBRANCH   1  10
TORSDOF 5
