REMARK  Name = ZINC06137658
REMARK                            x       y       z     vdW  Elec       q    Type
REMARK                         _______ _______ _______ _____ _____    ______ ____
ROOT
ATOM      1  N   LIG    1       -7.376   2.106  -0.170  0.00  0.00    +0.385 N 
ATOM      2  H   LIG    1       -7.686   1.729  -1.074  0.00  0.00    -0.081 HD
ATOM      3  C   LIG    1       -5.972   2.545  -0.300  0.00  0.00    -0.036 C 
ATOM      4  C   LIG    1       -5.679   3.825   0.479  0.00  0.00    -0.005 C 
ATOM      5  C   LIG    1       -4.319   4.394   0.044  0.00  0.00    +0.043 C 
ATOM      6  C   LIG    1       -3.299   3.311   0.035  0.00  0.00    +0.018 A 
ATOM      7  C   LIG    1       -3.521   1.952   0.030  0.00  0.00    +0.078 A 
ATOM      8  N   LIG    1       -2.448   1.156   0.020  0.00  0.00    -0.225 NA
ATOM      9  C   LIG    1       -1.220   1.642   0.017  0.00  0.00    +0.156 A 
ATOM     10  S   LIG    1       -1.529   3.405   0.036  0.00  0.00    -0.057 S 
ATOM     11  C   LIG    1       -4.950   1.498   0.037  0.00  0.00    -0.039 C 
ATOM     12  C   LIG    1       -5.245   0.251   0.330  0.00  0.00    -0.025 C 
ATOM     13  C   LIG    1       -6.693  -0.176   0.408  0.00  0.00    +0.009 C 
ATOM     14  C   LIG    1       -7.514   1.041   0.856  0.00  0.00    -0.074 C 
ENDROOT
BRANCH   9  15
ATOM     15  N   LIG    1       -0.011   0.966   0.007  0.00  0.00    -0.338 N 
ATOM     16  H   LIG    1        0.822   1.462   0.002  0.00  0.00    +0.144 HD
ATOM     17  H   LIG    1        0.002  -0.004   0.002  0.00  0.00    +0.144 HD
ENDBRANCH   9  15
BRANCH   1  18
ATOM     18  C   LIG    1       -8.220   3.252   0.177  0.00  0.00    -0.078 C 
BRANCH  18  20
ATOM     19  C   LIG    1      -10.594   3.992   0.424  0.00  0.00    +0.002 C 
ATOM     20  C   LIG    1       -9.682   2.805   0.105  0.00  0.00    -0.022 C 
ENDBRANCH  18  20
ENDBRANCH   1  18
TORSDOF 3
