REMARK  Name = ZINC06855353
REMARK                            x       y       z     vdW  Elec       q    Type
REMARK                         _______ _______ _______ _____ _____    ______ ____
ROOT
ATOM      1  C   LIG    1       -2.325   2.127  -1.218  0.00  0.00    +0.066 C 
ATOM      2  C   LIG    1       -2.994   1.801   0.097  0.00  0.00    +0.144 C 
ATOM      3  N   LIG    1       -4.429   2.034  -0.103  0.00  0.00    -0.283 N 
ATOM      4  C   LIG    1       -4.609   2.446  -1.371  0.00  0.00    +0.282 C 
ATOM      5  O   LIG    1       -5.682   2.727  -1.867  0.00  0.00    -0.267 OA
ATOM      6  C   LIG    1       -3.307   2.513  -2.070  0.00  0.00    +0.188 C 
ENDROOT
BRANCH   2   7
ATOM      7  C   LIG    1       -2.469   2.704   1.183  0.00  0.00    -0.019 A 
ATOM      8  C   LIG    1       -2.812   4.044   1.191  0.00  0.00    +0.009 A 
ATOM      9  C   LIG    1       -2.333   4.877   2.185  0.00  0.00    +0.049 A 
ATOM     10  C   LIG    1       -1.509   4.370   3.177  0.00  0.00    +0.158 A 
ATOM     11  C   LIG    1       -1.164   3.021   3.169  0.00  0.00    +0.162 A 
ATOM     12  C   LIG    1       -1.651   2.191   2.172  0.00  0.00    +0.055 A 
BRANCH  10  13
ATOM     13  O   LIG    1       -1.036   5.188   4.155  0.00  0.00    -0.503 OA
ATOM     14  H   LIG    1       -1.608   5.241   4.933  0.00  0.00    +0.292 HD
ENDBRANCH  10  13
BRANCH  11  15
ATOM     15  O   LIG    1       -0.355   2.519   4.140  0.00  0.00    -0.491 OA
ATOM     16  C   LIG    1       -0.044   1.126   4.068  0.00  0.00    +0.277 C 
ENDBRANCH  11  15
ENDBRANCH   2   7
BRANCH   1  18
ATOM     17  C   LIG    1       -0.447   2.292  -2.906  0.00  0.00    +0.091 C 
ATOM     18  C   LIG    1       -0.941   2.050  -1.503  0.00  0.00    +0.162 C 
ATOM     19  O   LIG    1       -0.153   1.789  -0.618  0.00  0.00    -0.292 OA
ENDBRANCH   1  18
BRANCH   6  20
ATOM     20  O   LIG    1       -3.125   2.895  -3.354  0.00  0.00    -0.502 OA
ATOM     21  H   LIG    1       -2.263   2.909  -3.721  0.00  0.00    +0.292 HD
ENDBRANCH   6  20
BRANCH   3  22
ATOM     22  C   LIG    1       -5.480   1.848   0.900  0.00  0.00    +0.114 C 
BRANCH  22  23
ATOM     23  C   LIG    1       -5.683   3.153   1.673  0.00  0.00    +0.056 C 
BRANCH  23  24
ATOM     24  C   LIG    1       -6.764   2.963   2.705  0.00  0.00    -0.021 A 
ATOM     25  C   LIG    1       -8.066   3.256   2.561  0.00  0.00    +0.087 A 
ATOM     26  N   LIG    1       -8.744   2.947   3.709  0.00  0.00    -0.360 N 
ATOM     27  C   LIG    1       -7.872   2.436   4.644  0.00  0.00    +0.047 A 
ATOM     28  C   LIG    1       -8.028   1.975   5.947  0.00  0.00    +0.026 A 
ATOM     29  C   LIG    1       -6.936   1.497   6.638  0.00  0.00    +0.002 A 
ATOM     30  C   LIG    1       -5.678   1.484   6.054  0.00  0.00    +0.001 A 
ATOM     31  C   LIG    1       -5.501   1.938   4.776  0.00  0.00    +0.010 A 
ATOM     32  H   LIG    1       -9.697   3.071   3.844  0.00  0.00    +0.165 HD
ATOM     33  C   LIG    1       -6.595   2.417   4.054  0.00  0.00    +0.003 A 
ENDBRANCH  23  24
ENDBRANCH  22  23
ENDBRANCH   3  22
TORSDOF 8
