REMARK  Name = ZINC06483512
REMARK                            x       y       z     vdW  Elec       q    Type
REMARK                         _______ _______ _______ _____ _____    ______ ____
ROOT
ATOM      1  C   LIG    1        0.605  -0.607  -1.055  0.00  0.00    +0.127 A 
ATOM      2  C   LIG    1        1.171   0.170  -2.060  0.00  0.00    +0.092 A 
ATOM      3  C   LIG    1        1.787  -0.433  -3.139  0.00  0.00    +0.135 A 
ATOM      4  C   LIG    1        1.838  -1.833  -3.215  0.00  0.00    +0.102 A 
ATOM      5  C   LIG    1        1.265  -2.615  -2.197  0.00  0.00    +0.150 A 
ATOM      6  O   LIG    1        1.311  -3.964  -2.265  0.00  0.00    -0.421 OA
ATOM      7  C   LIG    1        1.895  -4.607  -3.290  0.00  0.00    +0.349 A 
ATOM      8  C   LIG    1        2.494  -3.898  -4.352  0.00  0.00    +0.113 A 
ATOM      9  C   LIG    1        3.195  -4.287  -5.587  0.00  0.00    +0.039 A 
ATOM     10  C   LIG    1        3.530  -5.508  -6.168  0.00  0.00    +0.061 A 
ATOM     11  C   LIG    1        4.211  -5.531  -7.370  0.00  0.00    +0.159 A 
ATOM     12  C   LIG    1        4.560  -4.336  -7.997  0.00  0.00    +0.162 A 
ATOM     13  C   LIG    1        4.234  -3.121  -7.423  0.00  0.00    +0.096 A 
ATOM     14  C   LIG    1        3.548  -3.083  -6.215  0.00  0.00    +0.140 A 
ATOM     15  O   LIG    1        3.107  -2.060  -5.449  0.00  0.00    -0.454 OA
ATOM     16  O   LIG    1        1.909  -5.824  -3.302  0.00  0.00    -0.244 OA
ATOM     17  C   LIG    1        2.484  -2.505  -4.347  0.00  0.00    +0.157 A 
ATOM     18  C   LIG    1        0.656  -1.990  -1.119  0.00  0.00    +0.093 A 
ENDROOT
BRANCH   1  20
ATOM     19  C   LIG    1       -0.017   1.425   0.010  0.00  0.00    +0.277 C 
ATOM     20  O   LIG    1        0.002  -0.004   0.002  0.00  0.00    -0.495 OA
ENDBRANCH   1  20
BRANCH   3  21
ATOM     21  O   LIG    1        2.340   0.324  -4.121  0.00  0.00    -0.506 OA
ATOM     22  H   LIG    1        3.268   0.548  -3.970  0.00  0.00    +0.292 HD
ENDBRANCH   3  21
BRANCH  11  23
ATOM     23  O   LIG    1        4.541  -6.721  -7.941  0.00  0.00    -0.503 OA
ATOM     24  H   LIG    1        3.868  -7.069  -8.542  0.00  0.00    +0.292 HD
ENDBRANCH  11  23
BRANCH  12  25
ATOM     25  O   LIG    1        5.231  -4.365  -9.180  0.00  0.00    -0.503 OA
ATOM     26  H   LIG    1        4.657  -4.377  -9.958  0.00  0.00    +0.292 HD
ENDBRANCH  12  25
TORSDOF 4
