REMARK  Name = ZINC06091643
REMARK                            x       y       z     vdW  Elec       q    Type
REMARK                         _______ _______ _______ _____ _____    ______ ____
ROOT
ATOM      1  C   LIG    1       -1.593   4.376   0.039  0.00  0.00    +0.156 C 
ATOM      2  N   LIG    1       -2.887   4.243   0.051  0.00  0.00    -0.187 NA
ENDROOT
BRANCH   1   5
ATOM      3  C   LIG    1       -0.013   1.076   0.008  0.00  0.00    +0.019 A 
ATOM      4  C   LIG    1       -1.157   1.887   0.017  0.00  0.00    +0.028 A 
ATOM      5  C   LIG    1       -0.734   3.187   0.025  0.00  0.00    +0.059 A 
ATOM      6  N   LIG    1        0.640   3.181   0.013  0.00  0.00    -0.360 N 
ATOM      7  H   LIG    1        1.194   4.131   0.012  0.00  0.00    +0.165 HD
ATOM      8  C   LIG    1        1.069   1.887   0.002  0.00  0.00    +0.083 A 
ENDBRANCH   1   5
BRANCH   2   9
ATOM      9  N   LIG    1       -3.708   5.378   0.064  0.00  0.00    -0.219 N 
ATOM     10  H   LIG    1       -3.258   6.382   0.065  0.00  0.00    +0.176 HD
BRANCH   9  11
ATOM     11  C   LIG    1       -5.048   5.241   0.076  0.00  0.00    +0.147 C 
ATOM     12  S   LIG    1       -6.051   6.628   0.092  0.00  0.00    -0.017 S 
BRANCH  11  13
ATOM     13  N   LIG    1       -5.599   4.011   0.075  0.00  0.00    -0.339 N 
ATOM     14  H   LIG    1       -4.955   3.119   0.064  0.00  0.00    +0.144 HD
ATOM     15  H   LIG    1       -6.693   3.898   0.085  0.00  0.00    +0.144 HD
ENDBRANCH  11  13
ENDBRANCH   9  11
ENDBRANCH   2   9
TORSDOF 4
