REMARK  Name = ZINC07053649
REMARK                            x       y       z     vdW  Elec       q    Type
REMARK                         _______ _______ _______ _____ _____    ______ ____
ROOT
ATOM      1  N   LIG    1        2.467  -0.887  -6.179  0.00  0.00    -0.216 N 
ATOM      2  H   LIG    1        3.173  -0.863  -6.845  0.00  0.00    +0.174 HD
ENDROOT
BRANCH   1   3
ATOM      3  C   LIG    1        1.139  -0.687  -6.563  0.00  0.00    +0.050 A 
ATOM      4  C   LIG    1        0.264  -1.764  -6.629  0.00  0.00    +0.024 A 
ATOM      5  C   LIG    1       -1.049  -1.563  -7.008  0.00  0.00    +0.004 A 
ATOM      6  C   LIG    1       -1.492  -0.291  -7.322  0.00  0.00    +0.028 A 
ATOM      7  C   LIG    1       -0.624   0.783  -7.257  0.00  0.00    +0.107 A 
ATOM      8  C   LIG    1        0.688   0.589  -6.873  0.00  0.00    +0.053 A 
BRANCH   7   9
ATOM      9  S   LIG    1       -1.194   2.401  -7.658  0.00  0.00    +0.056 S 
ATOM     10  O   LIG    1       -2.321   2.235  -8.508  0.00  0.00    -0.153 OA
ATOM     11  O   LIG    1       -0.051   3.150  -8.046  0.00  0.00    -0.153 OA
BRANCH   9  12
ATOM     12  N   LIG    1       -1.755   3.084  -6.258  0.00  0.00    -0.204 NA
ATOM     13  H   LIG    1       -2.115   3.984  -6.268  0.00  0.00    +0.144 HD
ATOM     14  H   LIG    1       -1.722   2.584  -5.427  0.00  0.00    +0.144 HD
ENDBRANCH   9  12
ENDBRANCH   7   9
ENDBRANCH   1   3
BRANCH   1  15
ATOM     15  S   LIG    1        2.837  -1.166  -4.590  0.00  0.00    +0.072 S 
ATOM     16  O   LIG    1        1.987  -2.217  -4.153  0.00  0.00    -0.150 OA
ATOM     17  O   LIG    1        4.253  -1.248  -4.511  0.00  0.00    -0.150 OA
BRANCH  15  21
ATOM     18  C   LIG    1        1.626   2.525  -2.265  0.00  0.00    -0.042 A 
ATOM     19  C   LIG    1        0.762   1.450  -2.354  0.00  0.00    +0.006 A 
ATOM     20  C   LIG    1        1.132   0.323  -3.064  0.00  0.00    +0.029 A 
ATOM     21  C   LIG    1        2.365   0.271  -3.685  0.00  0.00    +0.109 A 
ATOM     22  C   LIG    1        3.229   1.347  -3.597  0.00  0.00    +0.029 A 
ATOM     23  C   LIG    1        2.858   2.475  -2.891  0.00  0.00    +0.006 A 
BRANCH  18  25
ATOM     24  C   LIG    1        1.211   4.964  -2.426  0.00  0.00    +0.015 C 
ATOM     25  C   LIG    1        1.223   3.753  -1.491  0.00  0.00    -0.013 C 
ATOM     26  C   LIG    1       -0.175   3.550  -0.903  0.00  0.00    +0.015 C 
ATOM     27  C   LIG    1        2.223   3.993  -0.358  0.00  0.00    +0.015 C 
ENDBRANCH  18  25
ENDBRANCH  15  21
ENDBRANCH   1  15
TORSDOF 6
