REMARK  Name = ZINC08048404
REMARK                            x       y       z     vdW  Elec       q    Type
REMARK                         _______ _______ _______ _____ _____    ______ ____
ROOT
ATOM      1  C   LIG    1       -1.258  -0.782   0.010  0.00  0.00    +0.157 A 
ATOM      2  N   LIG    1       -1.359  -2.132   0.004  0.00  0.00    -0.258 N 
ATOM      3  N   LIG    1       -2.732  -2.426   0.017  0.00  0.00    -0.152 NA
ATOM      4  C   LIG    1       -3.370  -1.275   0.030  0.00  0.00    +0.182 A 
ATOM      5  H   LIG    1       -0.450  -2.751  -0.009  0.00  0.00    +0.191 HD
ATOM      6  N   LIG    1       -2.474  -0.283   0.031  0.00  0.00    -0.207 NA
ENDROOT
BRANCH   1  12
ATOM      7  C   LIG    1       -0.017   1.395   0.010  0.00  0.00    +0.031 A 
ATOM      8  C   LIG    1        1.181   2.080   0.002  0.00  0.00    +0.111 A 
ATOM      9  N   LIG    1        2.331   1.434  -0.013  0.00  0.00    -0.263 NA
ATOM     10  C   LIG    1        2.393   0.117  -0.020  0.00  0.00    +0.111 A 
ATOM     11  C   LIG    1        1.244  -0.647  -0.013  0.00  0.00    +0.031 A 
ATOM     12  C   LIG    1        0.002  -0.004   0.002  0.00  0.00    +0.022 A 
ENDBRANCH   1  12
BRANCH   4  13
ATOM     13  C   LIG    1       -4.844  -1.107   0.046  0.00  0.00    +0.024 A 
ATOM     14  C   LIG    1       -5.421   0.166   0.066  0.00  0.00    +0.031 A 
ATOM     15  C   LIG    1       -6.796   0.278   0.076  0.00  0.00    +0.111 A 
ATOM     16  N   LIG    1       -7.563  -0.796   0.078  0.00  0.00    -0.263 NA
ATOM     17  C   LIG    1       -7.058  -2.015   0.065  0.00  0.00    +0.111 A 
ATOM     18  C   LIG    1       -5.693  -2.217   0.049  0.00  0.00    +0.031 A 
ENDBRANCH   4  13
TORSDOF 2
