REMARK  Name = ZINC08204642
REMARK                            x       y       z     vdW  Elec       q    Type
REMARK                         _______ _______ _______ _____ _____    ______ ____
ROOT
ATOM      1  C   LIG    1       -0.021   1.461  -0.002  0.00  0.00    +0.132 C 
ATOM      2  N   LIG    1       -0.001  -0.004  -0.007  0.00  0.00    -0.294 N 
ATOM      3  C   LIG    1        0.004  -0.685  -1.291  0.00  0.00    +0.203 C 
ATOM      4  C   LIG    1       -0.049  -2.170  -1.140  0.00  0.00    +0.234 C 
ATOM      5  N   LIG    1       -0.069  -2.809   0.032  0.00  0.00    -0.276 N 
ATOM      6  C   LIG    1        0.040  -2.122   1.318  0.00  0.00    +0.167 C 
ATOM      7  C   LIG    1        1.343  -2.548   2.008  0.00  0.00    +0.069 C 
ATOM      8  C   LIG    1        1.478  -4.045   1.908  0.00  0.00    -0.015 A 
ATOM      9  C   LIG    1        2.326  -4.925   2.687  0.00  0.00    +0.003 A 
ATOM     10  C   LIG    1        3.237  -4.692   3.722  0.00  0.00    +0.010 A 
ATOM     11  C   LIG    1        3.879  -5.789   4.242  0.00  0.00    +0.001 A 
ATOM     12  C   LIG    1        3.644  -7.071   3.772  0.00  0.00    +0.002 A 
ATOM     13  C   LIG    1        2.749  -7.330   2.748  0.00  0.00    +0.026 A 
ATOM     14  C   LIG    1        2.082  -6.235   2.201  0.00  0.00    +0.047 A 
ATOM     15  N   LIG    1        1.156  -6.133   1.203  0.00  0.00    -0.356 N 
ATOM     16  H   LIG    1        0.804  -6.877   0.690  0.00  0.00    +0.166 HD
ATOM     17  C   LIG    1        0.798  -4.822   1.036  0.00  0.00    +0.046 A 
ATOM     18  C   LIG    1       -0.206  -4.281   0.044  0.00  0.00    +0.154 C 
ATOM     19  O   LIG    1       -0.073  -2.841  -2.150  0.00  0.00    -0.274 OA
ATOM     20  C   LIG    1        0.019  -0.635   1.165  0.00  0.00    +0.237 C 
ATOM     21  O   LIG    1        0.015   0.039   2.173  0.00  0.00    -0.274 OA
ENDROOT
BRANCH  18  22
ATOM     22  C   LIG    1       -1.601  -4.662   0.469  0.00  0.00    -0.018 A 
ATOM     23  C   LIG    1       -2.440  -5.307  -0.420  0.00  0.00    +0.009 A 
ATOM     24  C   LIG    1       -3.721  -5.659  -0.035  0.00  0.00    +0.050 A 
ATOM     25  C   LIG    1       -4.166  -5.364   1.243  0.00  0.00    +0.166 A 
ATOM     26  C   LIG    1       -3.321  -4.714   2.138  0.00  0.00    +0.167 A 
ATOM     27  O   LIG    1       -3.985  -4.540   3.318  0.00  0.00    -0.453 OA
ATOM     28  C   LIG    1       -5.379  -4.722   3.005  0.00  0.00    +0.466 C 
ATOM     29  O   LIG    1       -5.360  -5.598   1.862  0.00  0.00    -0.453 OA
ATOM     30  C   LIG    1       -2.037  -4.370   1.748  0.00  0.00    +0.055 A 
ENDBRANCH  18  22
TORSDOF 1
