REMARK  Name = ZINC08143636
REMARK                            x       y       z     vdW  Elec       q    Type
REMARK                         _______ _______ _______ _____ _____    ______ ____
ROOT
ATOM      1  C   LIG    1        0.867   6.705   4.909  0.00  0.00    +0.005 C 
ATOM      2  C   LIG    1        0.086   5.406   5.116  0.00  0.00    -0.031 C 
ATOM      3  C   LIG    1        1.037   4.309   5.610  0.00  0.00    +0.002 C 
ATOM      4  C   LIG    1        0.240   3.014   5.775  0.00  0.00    +0.016 C 
ATOM      5  C   LIG    1       -0.409   2.607   4.458  0.00  0.00    +0.040 C 
ATOM      6  N   LIG    1       -1.278   3.696   3.957  0.00  0.00    +0.399 N 
ATOM      7  H   LIG    1       -1.672   3.418   3.051  0.00  0.00    -0.082 HD
ATOM      8  H   LIG    1       -2.039   3.851   4.629  0.00  0.00    -0.082 HD
ATOM      9  C   LIG    1        0.611   2.168   3.396  0.00  0.00    +0.006 C 
ATOM     10  C   LIG    1        1.854   1.520   4.041  0.00  0.00    +0.009 C 
ATOM     11  C   LIG    1       -0.130   1.091   2.579  0.00  0.00    +0.028 C 
ATOM     12  C   LIG    1       -1.340   0.706   3.481  0.00  0.00    +0.121 C 
ATOM     13  C   LIG    1       -2.604   1.118   2.681  0.00  0.00    +0.036 C 
ATOM     14  C   LIG    1       -2.127   0.903   1.240  0.00  0.00    +0.001 C 
ATOM     15  C   LIG    1       -2.948   1.530   0.140  0.00  0.00    -0.004 C 
ATOM     16  C   LIG    1       -4.344   0.889   0.085  0.00  0.00    +0.004 C 
ATOM     17  C   LIG    1       -5.148   1.554  -1.035  0.00  0.00    +0.004 C 
ATOM     18  C   LIG    1       -4.436   1.371  -2.372  0.00  0.00    -0.002 C 
ATOM     19  C   LIG    1       -3.018   1.944  -2.324  0.00  0.00    -0.026 C 
ATOM     20  C   LIG    1       -3.054   3.451  -2.082  0.00  0.00    +0.012 C 
ATOM     21  C   LIG    1       -2.327   1.665  -3.662  0.00  0.00    +0.010 C 
ATOM     22  C   LIG    1       -3.116   2.292  -4.810  0.00  0.00    +0.032 C 
ATOM     23  C   LIG    1       -4.545   1.750  -4.835  0.00  0.00    +0.115 C 
ATOM     24  C   LIG    1       -5.235   2.024  -3.497  0.00  0.00    +0.035 C 
ATOM     25  C   LIG    1       -2.251   1.245  -1.197  0.00  0.00    -0.001 C 
ATOM     26  C   LIG    1       -0.779   1.607  -1.216  0.00  0.00    +0.005 C 
ATOM     27  C   LIG    1       -0.013   1.087   0.008  0.00  0.00    +0.007 C 
ATOM     28  C   LIG    1       -0.723   1.572   1.266  0.00  0.00    -0.023 C 
ATOM     29  C   LIG    1       -0.851   3.089   1.203  0.00  0.00    +0.012 C 
ATOM     30  O   LIG    1       -1.239   1.451   4.689  0.00  0.00    -0.388 OA
ATOM     31  C   LIG    1       -0.525   4.958   3.786  0.00  0.00    -0.075 C 
ENDROOT
BRANCH  23  32
ATOM     32  O   LIG    1       -5.277   2.391  -5.883  0.00  0.00    -0.392 OA
ATOM     33  H   LIG    1       -4.898   2.262  -6.764  0.00  0.00    +0.210 HD
ENDBRANCH  23  32
TORSDOF 1
