REMARK  Name = ZINC05925926
REMARK                            x       y       z     vdW  Elec       q    Type
REMARK                         _______ _______ _______ _____ _____    ______ ____
ROOT
ATOM      1  C   LIG    1        2.473   0.995   0.021  0.00  0.00    +0.040 C 
ENDROOT
BRANCH   1   2
ATOM      2  C   LIG    1        1.052   1.492   0.095  0.00  0.00    -0.043 A 
ATOM      3  C   LIG    1        0.008   0.590   0.171  0.00  0.00    +0.007 A 
ATOM      4  C   LIG    1       -1.296   1.043   0.234  0.00  0.00    +0.045 A 
ATOM      5  C   LIG    1       -1.556   2.406   0.231  0.00  0.00    +0.117 A 
ATOM      6  C   LIG    1       -0.506   3.310   0.155  0.00  0.00    +0.045 A 
ATOM      7  C   LIG    1        0.795   2.851   0.087  0.00  0.00    +0.007 A 
BRANCH   5   8
ATOM      8  O   LIG    1       -2.837   2.854   0.297  0.00  0.00    -0.507 OA
ATOM      9  H   LIG    1       -3.258   2.969  -0.565  0.00  0.00    +0.292 HD
ENDBRANCH   5   8
ENDBRANCH   1   2
BRANCH   1  11
ATOM     10  C   LIG    1        2.412   0.844  -2.472  0.00  0.00    +0.004 C 
ATOM     11  C   LIG    1        3.118   1.486  -1.276  0.00  0.00    +0.006 C 
ENDBRANCH   1  11
BRANCH   1  12
ATOM     12  C   LIG    1        3.263   1.529   1.218  0.00  0.00    +0.129 C 
BRANCH  12  13
ATOM     13  C   LIG    1        4.664   0.976   1.182  0.00  0.00    -0.030 A 
ATOM     14  C   LIG    1        4.870  -0.388   1.278  0.00  0.00    +0.008 A 
ATOM     15  C   LIG    1        6.154  -0.898   1.239  0.00  0.00    +0.046 A 
ATOM     16  C   LIG    1        7.237  -0.040   1.116  0.00  0.00    +0.117 A 
ATOM     17  C   LIG    1        7.027   1.328   1.026  0.00  0.00    +0.046 A 
ATOM     18  C   LIG    1        5.742   1.833   1.059  0.00  0.00    +0.008 A 
BRANCH  16  19
ATOM     19  O   LIG    1        8.500  -0.539   1.084  0.00  0.00    -0.507 OA
ATOM     20  H   LIG    1        8.914  -0.618   1.955  0.00  0.00    +0.292 HD
ENDBRANCH  16  19
ENDBRANCH  12  13
BRANCH  12  21
ATOM     21  C   LIG    1        2.603   1.113   2.466  0.00  0.00    +0.071 C 
ATOM     22  N   LIG    1        2.094   0.792   3.430  0.00  0.00    -0.196 NA
ENDBRANCH  12  21
ENDBRANCH   1  12
TORSDOF 7
