REMARK  Name = ZINC06859828
REMARK                            x       y       z     vdW  Elec       q    Type
REMARK                         _______ _______ _______ _____ _____    ______ ____
ROOT
ATOM      1  C   LIG    1       -6.881  -1.567  -3.825  0.00  0.00    +0.249 A 
ATOM      2  C   LIG    1       -6.719  -0.605  -2.840  0.00  0.00    +0.204 A 
ATOM      3  N   LIG    1       -5.627  -0.018  -2.321  0.00  0.00    -0.209 NA
ATOM      4  C   LIG    1       -5.745   0.891  -1.368  0.00  0.00    +0.137 A 
ATOM      5  C   LIG    1       -7.013   1.240  -0.893  0.00  0.00    +0.077 A 
ATOM      6  C   LIG    1       -8.177   0.660  -1.408  0.00  0.00    +0.087 A 
ATOM      7  C   LIG    1       -9.376   1.104  -0.848  0.00  0.00    +0.036 A 
ATOM      8  C   LIG    1       -9.367   2.043   0.124  0.00  0.00    +0.048 A 
ATOM      9  S   LIG    1       -7.625   2.376   0.325  0.00  0.00    -0.092 S 
ATOM     10  N   LIG    1       -7.978  -0.293  -2.411  0.00  0.00    -0.192 N 
ATOM     11  N   LIG    1       -8.864  -1.080  -3.154  0.00  0.00    -0.057 NA
ATOM     12  N   LIG    1       -8.179  -1.808  -3.966  0.00  0.00    -0.108 NA
ENDROOT
BRANCH   1  13
ATOM     13  S   LIG    1       -5.585  -2.340  -4.734  0.00  0.00    +0.047 S 
ATOM     14  O   LIG    1       -4.477  -1.450  -4.698  0.00  0.00    -0.163 OA
ATOM     15  O   LIG    1       -6.157  -2.794  -5.952  0.00  0.00    -0.163 OA
BRANCH  13  19
ATOM     16  C   LIG    1       -4.350  -6.035  -2.429  0.00  0.00    +0.000 A 
ATOM     17  C   LIG    1       -5.347  -6.116  -3.383  0.00  0.00    +0.002 A 
ATOM     18  C   LIG    1       -5.723  -4.988  -4.087  0.00  0.00    +0.027 A 
ATOM     19  C   LIG    1       -5.104  -3.778  -3.836  0.00  0.00    +0.095 A 
ATOM     20  C   LIG    1       -4.104  -3.697  -2.885  0.00  0.00    +0.027 A 
ATOM     21  C   LIG    1       -3.731  -4.825  -2.178  0.00  0.00    +0.002 A 
ENDBRANCH  13  19
ENDBRANCH   1  13
BRANCH   4  22
ATOM     22  N   LIG    1       -4.617   1.492  -0.839  0.00  0.00    -0.326 N 
ATOM     23  H   LIG    1       -4.704   2.158  -0.140  0.00  0.00    +0.148 HD
BRANCH  22  24
ATOM     24  C   LIG    1       -3.289   1.120  -1.334  0.00  0.00    +0.134 C 
BRANCH  24  25
ATOM     25  C   LIG    1       -2.223   1.924  -0.587  0.00  0.00    +0.135 C 
ATOM     26  C   LIG    1       -0.833   1.634  -1.185  0.00  0.00    +0.035 C 
ATOM     27  C   LIG    1       -0.013   1.086   0.008  0.00  0.00    +0.031 C 
ATOM     28  C   LIG    1       -0.810   1.621   1.224  0.00  0.00    +0.160 C 
ATOM     29  O   LIG    1       -2.186   1.524   0.793  0.00  0.00    -0.375 OA
ENDBRANCH  24  25
ENDBRANCH  22  24
ENDBRANCH   4  22
TORSDOF 5
