REMARK  Name = ZINC06812943
REMARK                            x       y       z     vdW  Elec       q    Type
REMARK                         _______ _______ _______ _____ _____    ______ ____
ROOT
ATOM      1  C   LIG    1        4.273   2.691  -1.389  0.00  0.00    +0.161 C 
ATOM      2  C   LIG    1        4.708   4.019  -1.248  0.00  0.00    +0.230 C 
ATOM      3  O   LIG    1        5.013   4.770  -2.157  0.00  0.00    -0.286 OA
ATOM      4  C   LIG    1        4.731   4.348   0.203  0.00  0.00    +0.283 C 
ATOM      5  O   LIG    1        5.062   5.420   0.668  0.00  0.00    -0.267 OA
ATOM      6  N   LIG    1        4.334   3.286   0.923  0.00  0.00    -0.287 N 
ATOM      7  C   LIG    1        4.020   2.182   0.012  0.00  0.00    +0.125 C 
ENDROOT
BRANCH   7   8
ATOM      8  C   LIG    1        2.574   1.784   0.163  0.00  0.00    -0.026 A 
ATOM      9  C   LIG    1        1.604   2.754   0.329  0.00  0.00    +0.006 A 
ATOM     10  C   LIG    1        0.278   2.389   0.466  0.00  0.00    +0.004 A 
ATOM     11  C   LIG    1       -0.078   1.054   0.439  0.00  0.00    -0.045 A 
ATOM     12  C   LIG    1        0.892   0.083   0.275  0.00  0.00    +0.004 A 
ATOM     13  C   LIG    1        2.219   0.448   0.137  0.00  0.00    +0.006 A 
BRANCH  11  14
ATOM     14  C   LIG    1       -1.524   0.656   0.590  0.00  0.00    +0.013 C 
ATOM     15  C   LIG    1       -1.681  -0.237   1.822  0.00  0.00    +0.012 C 
ATOM     16  C   LIG    1       -1.974  -0.110  -0.656  0.00  0.00    +0.012 C 
ENDBRANCH  11  14
ENDBRANCH   7   8
BRANCH   1  17
ATOM     17  C   LIG    1        4.109   1.992  -2.567  0.00  0.00    +0.176 C 
ATOM     18  O   LIG    1        3.814   0.675  -2.535  0.00  0.00    -0.291 OA
BRANCH  17  23
ATOM     19  C   LIG    1        4.687   4.687  -7.614  0.00  0.00    +0.044 C 
ATOM     20  C   LIG    1        4.536   3.981  -6.291  0.00  0.00    -0.050 A 
ATOM     21  C   LIG    1        5.231   2.808  -6.053  0.00  0.00    +0.004 A 
ATOM     22  C   LIG    1        5.097   2.156  -4.846  0.00  0.00    +0.011 A 
ATOM     23  C   LIG    1        4.258   2.683  -3.860  0.00  0.00    +0.018 A 
ATOM     24  C   LIG    1        3.555   3.866  -4.109  0.00  0.00    +0.011 A 
ATOM     25  C   LIG    1        3.703   4.509  -5.319  0.00  0.00    +0.004 A 
ENDBRANCH  17  23
ENDBRANCH   1  17
BRANCH   6  26
ATOM     26  C   LIG    1        4.232   3.238   2.384  0.00  0.00    +0.111 C 
BRANCH  26  27
ATOM     27  C   LIG    1        5.562   2.766   2.973  0.00  0.00    +0.047 C 
BRANCH  27  28
ATOM     28  C   LIG    1        5.455   2.717   4.499  0.00  0.00    +0.161 C 
BRANCH  28  29
ATOM     29  O   LIG    1        6.697   2.275   5.049  0.00  0.00    -0.383 OA
ATOM     30  C   LIG    1        6.705   2.194   6.476  0.00  0.00    +0.193 C 
ENDBRANCH  28  29
ENDBRANCH  27  28
ENDBRANCH  26  27
ENDBRANCH   6  26
TORSDOF 8
