REMARK  Name = ZINC06718496
REMARK                            x       y       z     vdW  Elec       q    Type
REMARK                         _______ _______ _______ _____ _____    ______ ____
ROOT
ATOM      1  CA  ILE A  2        1.406  -4.363   3.712  0.00  0.00    +0.166 C 
ATOM      2  C   ILE A  2        0.988  -5.236   4.859  0.00  0.00    +0.234 C 
ATOM      3  N   UNK A  1       -0.119  -5.008   5.572  0.00  0.00    -0.302 N 
ATOM      4  H   UNK A  1       -0.334  -5.611   6.301  0.00  0.00    +0.150 HD
ATOM      5  C   UNK A  1       -1.016  -3.892   5.305  0.00  0.00    +0.163 C 
ATOM      6  C   UNK A  1       -0.333  -2.824   4.505  0.00  0.00    +0.238 C 
ATOM      7  O   UNK A  1       -0.801  -1.705   4.509  0.00  0.00    -0.274 OA
ATOM      8  O   ILE A  2        1.679  -6.189   5.147  0.00  0.00    -0.274 OA
ATOM      9  N   ILE A  2        0.771  -3.054   3.787  0.00  0.00    -0.271 N 
ENDROOT
BRANCH   5  10
ATOM     10  C   UNK A  1       -2.231  -4.401   4.527  0.00  0.00    +0.027 C 
ATOM     11  C   UNK A  1       -3.278  -3.281   4.350  0.00  0.00    +0.041 C 
ATOM     12  C   UNK A  1       -4.621  -3.980   4.440  0.00  0.00    -0.044 A 
ATOM     13  C   UNK A  1       -5.880  -3.555   4.049  0.00  0.00    +0.004 A 
ATOM     14  C   UNK A  1       -6.977  -4.375   4.228  0.00  0.00    +0.000 A 
ATOM     15  C   UNK A  1       -6.818  -5.625   4.798  0.00  0.00    +0.000 A 
ATOM     16  C   UNK A  1       -5.563  -6.050   5.188  0.00  0.00    +0.004 A 
ATOM     17  C   UNK A  1       -4.462  -5.229   5.009  0.00  0.00    -0.044 A 
ATOM     18  C   UNK A  1       -3.004  -5.456   5.346  0.00  0.00    +0.041 C 
ENDBRANCH   5  10
BRANCH   1  19
ATOM     19  CB  ILE A  2        1.013  -5.035   2.395  0.00  0.00    +0.015 C 
ATOM     20  CG2 ILE A  2        1.477  -4.170   1.222  0.00  0.00    +0.010 C 
BRANCH  19  22
ATOM     21  CD1 ILE A  2        1.185  -7.135   1.051  0.00  0.00    +0.004 C 
ATOM     22  CG1 ILE A  2        1.675  -6.412   2.307  0.00  0.00    +0.002 C 
ENDBRANCH  19  22
ENDBRANCH   1  19
BRANCH   9  23
ATOM     23  C   UNK A  0        1.365  -1.943   3.039  0.00  0.00    +0.215 C 
BRANCH  23  24
ATOM     24  C   UNK A  0        0.363  -1.415   2.044  0.00  0.00    +0.242 C 
ATOM     25  N   UNK A  0        0.788  -0.810   0.917  0.00  0.00    -0.295 N 
ATOM     26  C   UNK A  0       -0.167  -0.375  -0.115  0.00  0.00    +0.136 C 
ATOM     27  C   UNK A  0        0.131   1.088  -0.463  0.00  0.00    +0.179 C 
ATOM     28  O   UNK A  0        1.518   1.223  -0.783  0.00  0.00    -0.377 OA
ATOM     29  C   UNK A  0        2.401   0.907   0.295  0.00  0.00    +0.179 C 
ATOM     30  C   UNK A  0        2.220  -0.565   0.682  0.00  0.00    +0.136 C 
ATOM     31  O   UNK A  0       -0.824  -1.535   2.257  0.00  0.00    -0.273 OA
ENDBRANCH  23  24
BRANCH  23  32
ATOM     32  C   UNK A  0        1.751  -0.844   3.995  0.00  0.00    +0.109 A 
ATOM     33  C   UNK A  0        2.699   0.086   3.792  0.00  0.00    +0.223 A 
ATOM     34  O   UNK A  0        2.720   0.875   4.884  0.00  0.00    -0.448 OA
ATOM     35  C   UNK A  0        1.797   0.414   5.739  0.00  0.00    +0.193 A 
ATOM     36  C   UNK A  0        1.488   0.997   7.094  0.00  0.00    +0.109 C 
ATOM     37  N   UNK A  0        1.212  -0.620   5.206  0.00  0.00    -0.216 NA
ENDBRANCH  23  32
ENDBRANCH   9  23
TORSDOF 6
