REMARK  Name = ZINC06576212
REMARK                            x       y       z     vdW  Elec       q    Type
REMARK                         _______ _______ _______ _____ _____    ______ ____
ROOT
ATOM      1  C   LIG    1        2.714  -4.241  -0.047  0.00  0.00    +0.136 C 
ENDROOT
BRANCH   1   8
ATOM      2  C   LIG    1        2.354   1.353   2.704  0.00  0.00    +0.001 A 
ATOM      3  C   LIG    1        2.903   2.050   1.638  0.00  0.00    +0.004 A 
ATOM      4  C   LIG    1        3.292   1.391   0.491  0.00  0.00    +0.047 A 
ATOM      5  C   LIG    1        3.135   0.014   0.397  0.00  0.00    +0.143 A 
ATOM      6  C   LIG    1        2.580  -0.691   1.476  0.00  0.00    +0.065 A 
ATOM      7  C   LIG    1        2.422  -2.154   1.353  0.00  0.00    +0.200 A 
ATOM      8  C   LIG    1        2.845  -2.753   0.147  0.00  0.00    +0.095 A 
ATOM      9  C   LIG    1        3.370  -1.978  -0.837  0.00  0.00    +0.292 A 
ATOM     10  O   LIG    1        1.946  -2.819   2.259  0.00  0.00    -0.287 OA
ATOM     11  O   LIG    1        3.508  -0.652  -0.716  0.00  0.00    -0.425 OA
ATOM     12  C   LIG    1        2.190  -0.013   2.630  0.00  0.00    +0.015 A 
BRANCH   9  13
ATOM     13  O   LIG    1        3.769  -2.569  -1.984  0.00  0.00    -0.480 OA
ATOM     14  H   LIG    1        3.680  -3.496  -2.088  0.00  0.00    +0.295 HD
ENDBRANCH   9  13
ENDBRANCH   1   8
BRANCH   1  15
ATOM     15  C   LIG    1        1.802  -4.518  -1.214  0.00  0.00    +0.095 A 
ATOM     16  C   LIG    1        0.514  -3.942  -1.260  0.00  0.00    +0.200 A 
ATOM     17  C   LIG    1       -0.327  -4.255  -2.433  0.00  0.00    +0.065 A 
ATOM     18  C   LIG    1       -1.612  -3.732  -2.564  0.00  0.00    +0.015 A 
ATOM     19  C   LIG    1       -2.364  -4.049  -3.675  0.00  0.00    +0.001 A 
ATOM     20  C   LIG    1       -1.848  -4.883  -4.655  0.00  0.00    +0.004 A 
ATOM     21  C   LIG    1       -0.578  -5.407  -4.535  0.00  0.00    +0.047 A 
ATOM     22  C   LIG    1        0.197  -5.099  -3.424  0.00  0.00    +0.143 A 
ATOM     23  O   LIG    1        1.442  -5.600  -3.287  0.00  0.00    -0.425 OA
ATOM     24  O   LIG    1        0.112  -3.214  -0.367  0.00  0.00    -0.287 OA
ATOM     25  C   LIG    1        2.215  -5.318  -2.231  0.00  0.00    +0.292 A 
BRANCH  25  26
ATOM     26  O   LIG    1        3.452  -5.854  -2.171  0.00  0.00    -0.480 OA
ATOM     27  H   LIG    1        4.008  -5.669  -1.440  0.00  0.00    +0.295 HD
ENDBRANCH  25  26
ENDBRANCH   1  15
BRANCH   1  28
ATOM     28  C   LIG    1        2.138  -4.862   1.200  0.00  0.00    +0.117 A 
ATOM     29  C   LIG    1        2.833  -5.523   2.143  0.00  0.00    +0.045 A 
ATOM     30  C   LIG    1        1.903  -5.932   3.126  0.00  0.00    +0.041 A 
ATOM     31  C   LIG    1        0.695  -5.496   2.725  0.00  0.00    +0.195 A 
ATOM     32  O   LIG    1        0.845  -4.844   1.560  0.00  0.00    -0.467 OA
ENDBRANCH   1  28
TORSDOF 5
