REMARK  Name = ZINC06718666
REMARK                            x       y       z     vdW  Elec       q    Type
REMARK                         _______ _______ _______ _____ _____    ______ ____
ROOT
ATOM      1  C   LIG    1       -1.036   6.020  -0.747  0.00  0.00    +0.106 C 
ATOM      2  C   LIG    1       -0.299   5.361   0.266  0.00  0.00    +0.107 C 
ATOM      3  N   LIG    1        0.571   6.031   1.005  0.00  0.00    -0.291 NA
ATOM      4  H   LIG    1        1.476   5.576   0.882  0.00  0.00    +0.124 HD
ATOM      5  C   LIG    1        0.759   7.334   0.784  0.00  0.00    +0.144 C 
ATOM      6  N   LIG    1        1.672   8.017   1.559  0.00  0.00    -0.272 NA
ATOM      7  H   LIG    1        2.583   7.576   1.432  0.00  0.00    +0.126 HD
ATOM      8  C   LIG    1        1.805   9.338   1.281  0.00  0.00    +0.194 C 
ATOM      9  N   LIG    1        1.145  10.015   0.346  0.00  0.00    -0.273 NA
ATOM     10  H   LIG    1        0.476   9.547  -0.232  0.00  0.00    +0.126 HD
ATOM     11  C   LIG    1        0.253   9.420  -0.434  0.00  0.00    +0.141 C 
ATOM     12  C   LIG    1        0.018   7.989  -0.232  0.00  0.00    +0.117 C 
ATOM     13  N   LIG    1       -0.858   7.312  -0.967  0.00  0.00    -0.300 NA
ATOM     14  H   LIG    1       -1.765   7.762  -0.838  0.00  0.00    +0.123 HD
ENDROOT
BRANCH   1  17
ATOM     15  C   LIG    1       -2.574   3.307  -2.846  0.00  0.00    +0.004 A 
ATOM     16  C   LIG    1       -1.663   4.015  -2.089  0.00  0.00    +0.005 A 
ATOM     17  C   LIG    1       -2.010   5.259  -1.563  0.00  0.00    -0.025 A 
ATOM     18  C   LIG    1       -3.276   5.787  -1.814  0.00  0.00    +0.050 A 
ATOM     19  C   LIG    1       -4.182   5.071  -2.578  0.00  0.00    +0.117 A 
ATOM     20  C   LIG    1       -3.829   3.831  -3.093  0.00  0.00    +0.045 A 
BRANCH  19  21
ATOM     21  O   LIG    1       -5.417   5.582  -2.824  0.00  0.00    -0.507 OA
ATOM     22  H   LIG    1       -5.467   6.121  -3.626  0.00  0.00    +0.292 HD
ENDBRANCH  19  21
ENDBRANCH   1  17
BRANCH   2  23
ATOM     23  C   LIG    1       -0.507   3.914   0.504  0.00  0.00    -0.025 A 
ATOM     24  C   LIG    1       -1.799   3.393   0.559  0.00  0.00    +0.005 A 
ATOM     25  C   LIG    1       -1.990   2.043   0.775  0.00  0.00    +0.004 A 
ATOM     26  C   LIG    1       -0.902   1.206   0.949  0.00  0.00    +0.045 A 
ATOM     27  C   LIG    1        0.387   1.717   0.896  0.00  0.00    +0.117 A 
ATOM     28  C   LIG    1        0.589   3.069   0.674  0.00  0.00    +0.050 A 
BRANCH  27  29
ATOM     29  O   LIG    1        1.453   0.890   1.062  0.00  0.00    -0.507 OA
ATOM     30  H   LIG    1        1.783   0.504   0.239  0.00  0.00    +0.292 HD
ENDBRANCH  27  29
ENDBRANCH   2  23
BRANCH   8  31
ATOM     31  N   LIG    1        2.721  10.020   2.058  0.00  0.00    -0.303 NA
ATOM     32  H   LIG    1        2.868  10.968   1.915  0.00  0.00    +0.121 HD
ATOM     33  H   LIG    1        3.217   9.551   2.747  0.00  0.00    +0.121 HD
ENDBRANCH   8  31
BRANCH  11  34
ATOM     34  N   LIG    1       -0.430  10.124  -1.402  0.00  0.00    -0.314 NA
ATOM     35  H   LIG    1       -0.261  11.072  -1.522  0.00  0.00    +0.120 HD
ATOM     36  H   LIG    1       -1.079   9.673  -1.964  0.00  0.00    +0.120 HD
ENDBRANCH  11  34
TORSDOF 6
