REMARK  Name = ZINC07992853
REMARK                            x       y       z     vdW  Elec       q    Type
REMARK                         _______ _______ _______ _____ _____    ______ ____
ROOT
ATOM      1  C   LIG    1       -1.723  -5.470  -0.992  0.00  0.00    +0.018 A 
ATOM      2  C   LIG    1       -0.524  -5.984  -1.525  0.00  0.00    +0.013 A 
ATOM      3  C   LIG    1       -0.322  -7.322  -1.619  0.00  0.00    +0.029 A 
ATOM      4  C   LIG    1       -1.315  -8.220  -1.183  0.00  0.00    +0.075 A 
ATOM      5  C   LIG    1       -2.525  -7.714  -0.645  0.00  0.00    +0.002 A 
ATOM      6  C   LIG    1       -3.511  -8.624  -0.212  0.00  0.00    +0.019 A 
ATOM      7  C   LIG    1       -3.262  -9.961  -0.330  0.00  0.00    +0.015 A 
ATOM      8  C   LIG    1       -2.050 -10.401  -0.872  0.00  0.00    +0.219 A 
ATOM      9  O   LIG    1       -1.780 -11.724  -1.012  0.00  0.00    -0.476 OA
ATOM     10  C   LIG    1       -2.564 -12.650  -0.260  0.00  0.00    +0.231 C 
ATOM     11  C   LIG    1       -4.046 -12.314  -0.469  0.00  0.00    +0.046 C 
ATOM     12  C   LIG    1       -4.315 -10.934   0.137  0.00  0.00    +0.044 C 
ATOM     13  N   LIG    1       -1.131  -9.539  -1.271  0.00  0.00    -0.213 NA
ATOM     14  C   LIG    1       -2.719  -6.332  -0.548  0.00  0.00    +0.021 A 
ENDROOT
BRANCH   1  15
ATOM     15  C   LIG    1       -1.919  -4.016  -0.901  0.00  0.00    +0.166 C 
ATOM     16  O   LIG    1       -2.947  -3.571  -0.438  0.00  0.00    -0.292 OA
BRANCH  15  20
ATOM     17  C   LIG    1        0.652  -0.570  -1.138  0.00  0.00    +0.118 C 
ATOM     18  C   LIG    1       -0.372  -0.785  -2.254  0.00  0.00    +0.032 C 
ATOM     19  C   LIG    1       -1.466  -1.737  -1.766  0.00  0.00    +0.014 C 
ATOM     20  C   LIG    1       -0.841  -3.079  -1.382  0.00  0.00    +0.060 C 
ATOM     21  C   LIG    1        0.183  -2.864  -0.266  0.00  0.00    +0.014 C 
ATOM     22  C   LIG    1        1.277  -1.913  -0.754  0.00  0.00    +0.032 C 
BRANCH  17  24
ATOM     23  C   LIG    1       -0.017   1.425   0.010  0.00  0.00    +0.194 C 
ATOM     24  O   LIG    1        0.002  -0.004   0.002  0.00  0.00    -0.380 OA
ENDBRANCH  17  24
ENDBRANCH  15  20
ENDBRANCH   1  15
TORSDOF 3
