REMARK  Name = ZINC06007277
REMARK                            x       y       z     vdW  Elec       q    Type
REMARK                         _______ _______ _______ _____ _____    ______ ____
ROOT
ATOM      1  C   LIG    1       -1.266  -0.689  -0.744  0.00  0.00    +0.121 A 
ATOM      2  C   LIG    1       -2.433   0.057  -0.648  0.00  0.00    +0.047 A 
ATOM      3  C   LIG    1       -3.636  -0.555  -0.360  0.00  0.00    +0.027 A 
ATOM      4  C   LIG    1       -3.691  -1.930  -0.161  0.00  0.00    +0.043 A 
ATOM      5  C   LIG    1       -2.513  -2.681  -0.258  0.00  0.00    +0.032 A 
ATOM      6  C   LIG    1       -2.892  -4.090  -0.000  0.00  0.00    +0.153 C 
ATOM      7  C   LIG    1       -4.348  -4.056   0.242  0.00  0.00    +0.269 C 
ATOM      8  O   LIG    1       -5.055  -5.014   0.494  0.00  0.00    -0.268 OA
ATOM      9  N   LIG    1       -2.105  -5.139   0.011  0.00  0.00    -0.174 NA
ATOM     10  N   LIG    1       -4.754  -2.779   0.136  0.00  0.00    -0.280 N 
ATOM     11  H   LIG    1       -5.672  -2.486   0.251  0.00  0.00    +0.155 HD
ATOM     12  C   LIG    1       -1.304  -2.060  -0.554  0.00  0.00    +0.057 A 
ENDROOT
BRANCH   9  13
ATOM     13  N   LIG    1       -0.718  -4.976  -0.104  0.00  0.00    -0.202 N 
ATOM     14  H   LIG    1       -0.333  -4.086  -0.106  0.00  0.00    +0.178 HD
ATOM     15  C   LIG    1        0.081  -6.056  -0.212  0.00  0.00    +0.267 C 
ATOM     16  O   LIG    1       -0.402  -7.172  -0.210  0.00  0.00    -0.268 OA
BRANCH  15  17
ATOM     17  C   LIG    1        1.540  -5.884  -0.333  0.00  0.00    +0.081 A 
ATOM     18  C   LIG    1        2.099  -4.604  -0.330  0.00  0.00    +0.032 A 
ATOM     19  C   LIG    1        3.465  -4.450  -0.444  0.00  0.00    +0.019 A 
ATOM     20 BR   LIG    1        4.221  -2.717  -0.440  0.00  0.00    -0.050 Br
ATOM     21  C   LIG    1        4.286  -5.561  -0.561  0.00  0.00    +0.019 A 
ATOM     22  C   LIG    1        3.745  -6.832  -0.565  0.00  0.00    +0.047 A 
ATOM     23  C   LIG    1        2.374  -7.005  -0.446  0.00  0.00    +0.129 A 
BRANCH  23  24
ATOM     24  O   LIG    1        1.843  -8.253  -0.444  0.00  0.00    -0.506 OA
ATOM     25  H   LIG    1        1.612  -8.584  -1.323  0.00  0.00    +0.292 HD
ENDBRANCH  23  24
ENDBRANCH  15  17
ENDBRANCH   9  13
BRANCH   1  27
ATOM     26  C   LIG    1       -0.122   1.343  -1.211  0.00  0.00    +0.277 C 
ATOM     27  O   LIG    1       -0.087  -0.074  -1.028  0.00  0.00    -0.495 OA
ENDBRANCH   1  27
TORSDOF 4
