REMARK  Name = ZINC06491423
REMARK                            x       y       z     vdW  Elec       q    Type
REMARK                         _______ _______ _______ _____ _____    ______ ____
ROOT
ATOM      1  N   UNK A  1       -3.011   4.507   1.132  0.00  0.00    +0.395 N 
ATOM      2  H   UNK A  1       -2.201   4.465   0.503  0.00  0.00    -0.084 HD
ATOM      3  H   UNK A  1       -2.823   5.176   1.888  0.00  0.00    -0.084 HD
ENDROOT
BRANCH   1   5
ATOM      4  C   UNK A  1       -4.129   4.389  -1.049  0.00  0.00    -0.004 C 
ATOM      5  C   UNK A  1       -4.195   4.950   0.373  0.00  0.00    +0.014 C 
BRANCH   5   6
ATOM      6  C   UNK A  1       -4.213   6.456   0.319  0.00  0.00    +0.202 C 
ATOM      7  N   PRO A  2       -5.262   7.098  -0.232  0.00  0.00    -0.289 N 
ATOM      8  CD  PRO A  2       -6.484   6.459  -0.751  0.00  0.00    +0.108 C 
ATOM      9  CG  PRO A  2       -7.052   7.462  -1.783  0.00  0.00    +0.021 C 
ATOM     10  CB  PRO A  2       -6.728   8.822  -1.110  0.00  0.00    +0.035 C 
ATOM     11  CA  PRO A  2       -5.374   8.552  -0.420  0.00  0.00    +0.184 C 
ATOM     12  O   UNK A  1       -3.283   7.090   0.771  0.00  0.00    -0.277 OA
BRANCH  11  13
ATOM     13  C   PRO A  2       -5.329   9.247   0.916  0.00  0.00    +0.325 C 
ATOM     14  O   PRO A  2       -5.214   8.599   1.930  0.00  0.00    -0.249 OA
BRANCH  13  15
ATOM     15  OXT PRO A  2       -5.415  10.585   0.981  0.00  0.00    -0.479 OA
ATOM     16  HXT PRO A  2       -5.504  11.087   0.195  0.00  0.00    +0.295 HD
ENDBRANCH  13  15
ENDBRANCH  11  13
ENDBRANCH   5   6
ENDBRANCH   1   5
BRANCH   1  17
ATOM     17  C   UNK A  1       -3.245   3.171   1.713  0.00  0.00    +0.040 C 
BRANCH  17  18
ATOM     18  C   UNK A  1       -3.961   3.314   3.031  0.00  0.00    +0.291 C 
ATOM     19  O   UNK A  1       -4.254   4.411   3.444  0.00  0.00    -0.253 OA
BRANCH  18  20
ATOM     20  O   UNK A  1       -4.274   2.222   3.747  0.00  0.00    -0.482 OA
ATOM     21  H   UNK A  1       -4.047   1.371   3.426  0.00  0.00    +0.295 HD
ENDBRANCH  18  20
ENDBRANCH  17  18
BRANCH  17  22
ATOM     22  C   UNK A  1       -1.900   2.477   1.935  0.00  0.00    -0.000 C 
BRANCH  22  23
ATOM     23  C   UNK A  1       -1.229   2.220   0.585  0.00  0.00    +0.034 C 
BRANCH  23  24
ATOM     24  C   UNK A  1        0.096   1.537   0.804  0.00  0.00    -0.047 A 
ATOM     25  C   UNK A  1        1.244   2.290   0.964  0.00  0.00    +0.003 A 
ATOM     26  C   UNK A  1        2.461   1.663   1.158  0.00  0.00    +0.000 A 
ATOM     27  C   UNK A  1        2.529   0.283   1.195  0.00  0.00    +0.000 A 
ATOM     28  C   UNK A  1        1.381  -0.470   1.035  0.00  0.00    +0.000 A 
ATOM     29  C   UNK A  1        0.165   0.156   0.840  0.00  0.00    +0.003 A 
ENDBRANCH  23  24
ENDBRANCH  22  23
ENDBRANCH  17  22
ENDBRANCH   1  17
TORSDOF 10
