REMARK  Name = ZINC06481191
REMARK                            x       y       z     vdW  Elec       q    Type
REMARK                         _______ _______ _______ _____ _____    ______ ____
ROOT
ATOM      1  C   LIG    1       -0.952   1.160  -2.098  0.00  0.00    +0.134 C 
ATOM      2  N   LIG    1       -0.135   1.895  -1.124  0.00  0.00    -0.283 N 
ATOM      3  C   LIG    1       -0.789   2.814  -0.197  0.00  0.00    +0.113 C 
ATOM      4  C   LIG    1       -0.535   4.258  -0.569  0.00  0.00    +0.165 C 
ATOM      5  C   LIG    1        0.803   4.510  -1.230  0.00  0.00    +0.165 C 
ATOM      6  C   LIG    1        1.964   3.948  -0.411  0.00  0.00    +0.113 C 
ATOM      7  N   LIG    1        2.109   2.511  -0.613  0.00  0.00    -0.283 N 
ATOM      8  C   LIG    1        3.409   1.921  -0.270  0.00  0.00    +0.134 C 
ATOM      9  C   LIG    1        1.194   1.700  -1.111  0.00  0.00    +0.305 C 
ATOM     10  O   LIG    1        1.598   0.663  -1.607  0.00  0.00    -0.252 OA
ENDROOT
BRANCH   4  11
ATOM     11  O   LIG    1       -1.568   4.673  -1.476  0.00  0.00    -0.387 OA
ATOM     12  H   LIG    1       -1.528   5.609  -1.716  0.00  0.00    +0.210 HD
ENDBRANCH   4  11
BRANCH   5  13
ATOM     13  O   LIG    1        0.985   5.923  -1.402  0.00  0.00    -0.387 OA
ATOM     14  H   LIG    1        0.285   6.350  -1.914  0.00  0.00    +0.210 HD
ENDBRANCH   5  13
BRANCH   3  15
ATOM     15  C   LIG    1       -2.300   2.552  -0.220  0.00  0.00    +0.060 C 
BRANCH  15  16
ATOM     16  C   LIG    1       -2.965   3.346   0.875  0.00  0.00    -0.046 A 
ATOM     17  C   LIG    1       -3.014   2.844   2.161  0.00  0.00    +0.004 A 
ATOM     18  C   LIG    1       -3.620   3.575   3.166  0.00  0.00    +0.000 A 
ATOM     19  C   LIG    1       -4.186   4.804   2.882  0.00  0.00    +0.000 A 
ATOM     20  C   LIG    1       -4.141   5.304   1.594  0.00  0.00    +0.000 A 
ATOM     21  C   LIG    1       -3.531   4.575   0.590  0.00  0.00    +0.004 A 
ENDBRANCH  15  16
ENDBRANCH   3  15
BRANCH   6  22
ATOM     22  C   LIG    1        1.814   4.268   1.073  0.00  0.00    +0.060 C 
BRANCH  22  23
ATOM     23  C   LIG    1        3.095   3.932   1.791  0.00  0.00    -0.046 A 
ATOM     24  C   LIG    1        3.156   2.822   2.613  0.00  0.00    +0.004 A 
ATOM     25  C   LIG    1        4.333   2.512   3.269  0.00  0.00    +0.000 A 
ATOM     26  C   LIG    1        5.446   3.317   3.110  0.00  0.00    +0.000 A 
ATOM     27  C   LIG    1        5.383   4.429   2.292  0.00  0.00    +0.000 A 
ATOM     28  C   LIG    1        4.207   4.737   1.633  0.00  0.00    +0.004 A 
ENDBRANCH  22  23
ENDBRANCH   6  22
TORSDOF 6
