REMARK  Name = ZINC06321961
REMARK                            x       y       z     vdW  Elec       q    Type
REMARK                         _______ _______ _______ _____ _____    ______ ____
ROOT
ATOM      1  C   LIG    1        3.513   0.787  -0.027  0.00  0.00    +0.169 C 
ENDROOT
BRANCH   1   8
ATOM      2  C   LIG    1        3.700   1.688  -2.355  0.00  0.00    +0.007 A 
ATOM      3  C   LIG    1        4.124   1.584  -3.666  0.00  0.00    +0.020 A 
ATOM      4  C   LIG    1        4.809   0.457  -4.085  0.00  0.00    +0.041 A 
ATOM      5 CL   LIG    1        5.336   0.324  -5.733  0.00  0.00    -0.084 Cl
ATOM      6  C   LIG    1        5.074  -0.563  -3.188  0.00  0.00    +0.020 A 
ATOM      7  C   LIG    1        4.654  -0.456  -1.876  0.00  0.00    +0.007 A 
ATOM      8  C   LIG    1        3.970   0.671  -1.458  0.00  0.00    -0.019 A 
ENDBRANCH   1   8
BRANCH   1   9
ATOM      9  C   LIG    1        4.246   1.920   0.644  0.00  0.00    -0.019 A 
ATOM     10  C   LIG    1        5.463   2.346   0.146  0.00  0.00    +0.007 A 
ATOM     11  C   LIG    1        6.133   3.389   0.757  0.00  0.00    +0.020 A 
ATOM     12  C   LIG    1        5.591   3.999   1.875  0.00  0.00    +0.041 A 
ATOM     13 CL   LIG    1        6.435   5.304   2.647  0.00  0.00    -0.084 Cl
ATOM     14  C   LIG    1        4.375   3.568   2.376  0.00  0.00    +0.020 A 
ATOM     15  C   LIG    1        3.704   2.529   1.760  0.00  0.00    +0.007 A 
ENDBRANCH   1   9
BRANCH   1  16
ATOM     16  N   LIG    1        2.072   1.050   0.005  0.00  0.00    -0.240 N 
ATOM     17  C   LIG    1        1.468   2.245  -0.116  0.00  0.00    +0.220 A 
ATOM     18  N   LIG    1        0.176   2.058  -0.034  0.00  0.00    -0.223 NA
ATOM     19  C   LIG    1       -0.082   0.762   0.139  0.00  0.00    +0.245 A 
ATOM     20  N   LIG    1        1.047   0.104   0.170  0.00  0.00    -0.158 NA
ENDBRANCH   1  16
TORSDOF 3
