REMARK  Name = ZINC06092461
REMARK                            x       y       z     vdW  Elec       q    Type
REMARK                         _______ _______ _______ _____ _____    ______ ____
ROOT
ATOM      1  C   LIG    1       -0.065   5.351   0.032  0.00  0.00    -0.039 C 
ATOM      2  C   LIG    1       -0.906   5.909   1.181  0.00  0.00    -0.007 C 
ATOM      3  C   LIG    1       -0.916   7.437   1.111  0.00  0.00    -0.001 C 
ATOM      4  C   LIG    1       -1.517   7.883  -0.224  0.00  0.00    -0.000 C 
ATOM      5  C   LIG    1       -0.675   7.325  -1.373  0.00  0.00    -0.001 C 
ATOM      6  C   LIG    1       -0.666   5.796  -1.303  0.00  0.00    -0.007 C 
ENDROOT
BRANCH   1   7
ATOM      7  N   LIG    1        1.308   5.884   0.145  0.00  0.00    +0.386 N 
ATOM      8  H   LIG    1        1.261   6.902   0.270  0.00  0.00    -0.081 HD
ATOM      9  C   LIG    1        1.985   5.289   1.317  0.00  0.00    -0.078 C 
ATOM     10  C   LIG    1        3.358   5.944   1.482  0.00  0.00    -0.019 C 
ATOM     11  C   LIG    1        4.192   5.694   0.223  0.00  0.00    -0.004 C 
ATOM     12  C   LIG    1        3.445   6.249  -0.993  0.00  0.00    -0.019 C 
ATOM     13  C   LIG    1        2.069   5.586  -1.086  0.00  0.00    -0.078 C 
ENDBRANCH   1   7
BRANCH   1  16
ATOM     14  C   LIG    1        1.150   1.775   0.062  0.00  0.00    +0.004 A 
ATOM     15  C   LIG    1        1.139   3.157  -0.001  0.00  0.00    +0.002 A 
ATOM     16  C   LIG    1       -0.056   3.845   0.101  0.00  0.00    -0.054 A 
ATOM     17  C   LIG    1       -1.241   3.155   0.266  0.00  0.00    +0.047 A 
ATOM     18  C   LIG    1       -1.232   1.769   0.323  0.00  0.00    +0.117 A 
ATOM     19  C   LIG    1       -0.032   1.080   0.227  0.00  0.00    +0.045 A 
BRANCH  18  20
ATOM     20  O   LIG    1       -2.398   1.087   0.479  0.00  0.00    -0.507 OA
ATOM     21  H   LIG    1       -2.641   0.930   1.402  0.00  0.00    +0.292 HD
ENDBRANCH  18  20
ENDBRANCH   1  16
TORSDOF 3
