REMARK  Name = ZINC07655239
REMARK                            x       y       z     vdW  Elec       q    Type
REMARK                         _______ _______ _______ _____ _____    ______ ____
ROOT
ATOM      1  C   LIG    1       -1.137  -2.158  -0.002  0.00  0.00    +0.241 C 
ATOM      2  N   LIG    1       -2.294  -2.847   0.009  0.00  0.00    -0.281 N 
ATOM      3  H   LIG    1       -3.139  -2.377   0.095  0.00  0.00    +0.155 HD
ATOM      4  O   LIG    1       -0.074  -2.751  -0.008  0.00  0.00    -0.270 OA
ENDROOT
BRANCH   2   5
ATOM      5  C   LIG    1       -2.279  -4.238  -0.104  0.00  0.00    +0.041 A 
ATOM      6  C   LIG    1       -1.221  -4.876  -0.719  0.00  0.00    +0.024 A 
ATOM      7  C   LIG    1       -1.195  -6.263  -0.831  0.00  0.00    +0.002 A 
ATOM      8  C   LIG    1       -2.214  -7.029  -0.350  0.00  0.00    +0.010 A 
ATOM      9  C   LIG    1       -3.311  -6.418   0.277  0.00  0.00    +0.002 A 
ATOM     10  C   LIG    1       -4.385  -7.164   0.790  0.00  0.00    +0.119 A 
ATOM     11  N   LIG    1       -5.390  -6.550   1.369  0.00  0.00    -0.263 NA
ATOM     12  C   LIG    1       -5.446  -5.232   1.499  0.00  0.00    +0.111 A 
ATOM     13  C   LIG    1       -4.455  -4.420   1.035  0.00  0.00    +0.030 A 
ATOM     14  C   LIG    1       -3.345  -5.005   0.402  0.00  0.00    +0.006 A 
ENDBRANCH   2   5
BRANCH   1  16
ATOM     15  C   LIG    1        0.001  -0.004  -0.015  0.00  0.00    +0.013 C 
ATOM     16  C   LIG    1       -1.157  -0.694  -0.005  0.00  0.00    +0.068 C 
BRANCH  15  20
ATOM     17  C   LIG    1       -0.057   4.238  -0.026  0.00  0.00    +0.000 A 
ATOM     18  C   LIG    1        1.153   3.566  -0.033  0.00  0.00    +0.001 A 
ATOM     19  C   LIG    1        1.180   2.188  -0.029  0.00  0.00    +0.008 A 
ATOM     20  C   LIG    1       -0.019   1.468  -0.018  0.00  0.00    -0.025 A 
ATOM     21  C   LIG    1       -1.238   2.154  -0.017  0.00  0.00    +0.008 A 
ATOM     22  C   LIG    1       -1.248   3.533  -0.016  0.00  0.00    +0.001 A 
ENDBRANCH  15  20
ENDBRANCH   1  16
TORSDOF 3
