REMARK  Name = ZINC06003698
REMARK                            x       y       z     vdW  Elec       q    Type
REMARK                         _______ _______ _______ _____ _____    ______ ____
ROOT
ATOM      1  C   LIG    1        1.793   3.061   0.205  0.00  0.00    +0.010 C 
ATOM      2  C   LIG    1        0.284   2.911   0.392  0.00  0.00    +0.018 C 
ATOM      3  C   LIG    1       -0.186   3.814   1.535  0.00  0.00    +0.007 C 
ATOM      4  C   LIG    1       -1.704   3.708   1.656  0.00  0.00    +0.019 C 
ATOM      5  C   LIG    1       -2.139   2.271   1.938  0.00  0.00    +0.077 C 
ATOM      6  C   LIG    1       -1.780   1.863   3.359  0.00  0.00    +0.019 C 
ATOM      7  C   LIG    1       -2.377   0.501   3.707  0.00  0.00    +0.012 C 
ATOM      8  C   LIG    1       -1.973  -0.585   2.723  0.00  0.00    -0.005 C 
ATOM      9  C   LIG    1       -0.561  -1.046   3.110  0.00  0.00    +0.016 C 
ATOM     10  C   LIG    1       -1.937  -0.118   1.302  0.00  0.00    -0.060 C 
ATOM     11  C   LIG    1       -2.272  -0.897   0.302  0.00  0.00    -0.026 C 
ATOM     12  C   LIG    1       -2.722  -2.321   0.421  0.00  0.00    +0.031 C 
ATOM     13  C   LIG    1       -2.482  -2.848   1.833  0.00  0.00    +0.006 C 
ATOM     14  C   LIG    1       -3.104  -4.234   2.023  0.00  0.00    -0.025 C 
ATOM     15  C   LIG    1       -4.579  -4.248   1.639  0.00  0.00    +0.012 C 
ATOM     16  C   LIG    1       -2.360  -5.210   1.096  0.00  0.00    +0.010 C 
ATOM     17  C   LIG    1       -2.863  -6.631   1.334  0.00  0.00    +0.032 C 
ATOM     18  C   LIG    1       -2.557  -7.060   2.764  0.00  0.00    +0.120 C 
ATOM     19  C   LIG    1       -3.169  -6.107   3.791  0.00  0.00    -0.006 C 
ATOM     20  C   LIG    1       -2.504  -6.444   5.148  0.00  0.00    +0.014 C 
ATOM     21  C   LIG    1       -4.663  -6.391   3.941  0.00  0.00    +0.014 C 
ATOM     22  C   LIG    1       -2.877  -4.660   3.468  0.00  0.00    +0.003 C 
ATOM     23  C   LIG    1       -3.590  -3.681   4.401  0.00  0.00    +0.005 C 
ATOM     24  C   LIG    1       -2.872  -2.328   4.286  0.00  0.00    +0.008 C 
ATOM     25  C   LIG    1       -2.903  -1.807   2.856  0.00  0.00    -0.019 C 
ATOM     26  C   LIG    1       -4.328  -1.314   2.551  0.00  0.00    +0.012 C 
ATOM     27  C   LIG    1       -1.540   1.296   0.931  0.00  0.00    +0.064 C 
ATOM     28  C   LIG    1       -0.040   1.456   0.763  0.00  0.00    +0.073 C 
ATOM     29  C   LIG    1        0.467   0.553  -0.370  0.00  0.00    +0.042 C 
ENDROOT
BRANCH   5  30
ATOM     30  C   LIG    1       -3.650   2.236   1.784  0.00  0.00    +0.312 C 
ATOM     31  O   LIG    1       -4.157   1.512   0.961  0.00  0.00    -0.250 OA
BRANCH  30  32
ATOM     32  O   LIG    1       -4.422   3.010   2.563  0.00  0.00    -0.480 OA
ATOM     33  H   LIG    1       -4.029   3.572   3.202  0.00  0.00    +0.295 HD
ENDBRANCH  30  32
ENDBRANCH   5  30
BRANCH  18  34
ATOM     34  O   LIG    1       -3.070  -8.379   2.985  0.00  0.00    -0.391 OA
ATOM     35  H   LIG    1       -2.695  -9.050   2.398  0.00  0.00    +0.210 HD
ENDBRANCH  18  34
BRANCH  28  36
ATOM     36  O   LIG    1        0.678   1.143   1.955  0.00  0.00    -0.388 OA
ATOM     37  H   LIG    1        1.633   1.273   1.885  0.00  0.00    +0.210 HD
ENDBRANCH  28  36
TORSDOF 4
