REMARK  Name = ZINC05965209
REMARK                            x       y       z     vdW  Elec       q    Type
REMARK                         _______ _______ _______ _____ _____    ______ ____
ROOT
ATOM      1  C   LIG    1        2.437   1.356  -0.447  0.00  0.00    -0.065 C 
ATOM      2  C   LIG    1        2.467   0.070   0.388  0.00  0.00    -0.010 C 
ATOM      3  C   LIG    1        1.282  -0.799  -0.027  0.00  0.00    +0.034 C 
ATOM      4  C   LIG    1        0.002  -0.004   0.002  0.00  0.00    -0.044 A 
ATOM      5  C   LIG    1       -1.197  -0.719   0.018  0.00  0.00    +0.006 A 
ATOM      6  C   LIG    1       -2.412  -0.078   0.038  0.00  0.00    +0.026 A 
ATOM      7  C   LIG    1       -2.453   1.312   0.041  0.00  0.00    +0.047 A 
ATOM      8  C   LIG    1       -1.247   2.030   0.031  0.00  0.00    +0.003 A 
ATOM      9  C   LIG    1       -1.618   3.447   0.040  0.00  0.00    +0.027 A 
ATOM     10  C   LIG    1       -2.960   3.501   0.061  0.00  0.00    +0.083 A 
ATOM     11  N   LIG    1       -3.477   2.233   0.056  0.00  0.00    -0.361 N 
ATOM     12  H   LIG    1       -4.422   2.017   0.068  0.00  0.00    +0.165 HD
ATOM     13  C   LIG    1       -0.016   1.357   0.009  0.00  0.00    -0.037 A 
ATOM     14  C   LIG    1        1.239   2.189   0.002  0.00  0.00    +0.021 C 
ENDROOT
BRANCH   1  16
ATOM     15  C   LIG    1        4.851   1.327  -0.630  0.00  0.00    -0.096 C 
ATOM     16  N   LIG    1        3.679   2.121  -0.205  0.00  0.00    +0.378 N 
ATOM     17  H   LIG    1        3.757   2.321   0.799  0.00  0.00    -0.082 HD
ATOM     18  C   LIG    1        3.638   3.398  -0.948  0.00  0.00    -0.096 C 
ENDBRANCH   1  16
TORSDOF 1
