REMARK  Name = ZINC06199057
REMARK                            x       y       z     vdW  Elec       q    Type
REMARK                         _______ _______ _______ _____ _____    ______ ____
ROOT
ATOM      1  C   LIG    1       -5.439   0.083   7.207  0.00  0.00    +0.015 C 
ATOM      2  C   LIG    1       -6.264   0.658   8.399  0.00  0.00    +0.011 C 
ATOM      3  C   LIG    1       -7.583  -0.147   8.386  0.00  0.00    +0.005 C 
ATOM      4  C   LIG    1       -7.432  -1.132   7.187  0.00  0.00    -0.003 C 
ATOM      5  C   LIG    1       -7.512  -0.224   5.922  0.00  0.00    +0.027 C 
ATOM      6  C   LIG    1       -6.192   0.581   5.935  0.00  0.00    +0.081 C 
ATOM      7  C   LIG    1       -5.890  -1.420   7.241  0.00  0.00    -0.023 C 
ATOM      8  C   LIG    1       -5.480  -2.112   8.542  0.00  0.00    +0.012 C 
ATOM      9  C   LIG    1       -5.407  -2.192   6.011  0.00  0.00    +0.012 C 
ENDROOT
BRANCH   6  10
ATOM     10  N   LIG    1       -5.407   0.294   4.732  0.00  0.00    -0.313 N 
ATOM     11  H   LIG    1       -4.763  -0.431   4.734  0.00  0.00    +0.149 HD
ATOM     12  C   LIG    1       -5.580   1.039   3.622  0.00  0.00    +0.199 C 
ATOM     13  O   LIG    1       -6.385   1.946   3.619  0.00  0.00    -0.278 OA
BRANCH  12  14
ATOM     14  C   LIG    1       -4.773   0.744   2.384  0.00  0.00    +0.014 C 
BRANCH  14  15
ATOM     15  N   LIG    1       -5.425   1.320   1.194  0.00  0.00    +0.386 N 
ATOM     16  H   LIG    1       -4.843   1.137   0.368  0.00  0.00    -0.089 HD
ATOM     17  H   LIG    1       -5.533   2.326   1.308  0.00  0.00    -0.089 HD
ATOM     18  H   LIG    1       -6.340   0.894   1.057  0.00  0.00    -0.089 HD
ENDBRANCH  14  15
BRANCH  14  19
ATOM     19  C   LIG    1       -3.377   1.353   2.528  0.00  0.00    +0.015 C 
BRANCH  19  20
ATOM     20  C   LIG    1       -2.517   0.949   1.329  0.00  0.00    +0.164 C 
BRANCH  20  21
ATOM     21  S   LIG    1       -0.862   1.671   1.500  0.00  0.00    -0.034 S 
ATOM     22  C   LIG    1       -0.013   1.086   0.008  0.00  0.00    +0.194 C 
ATOM     23  O   LIG    1       -0.978   3.085   1.426  0.00  0.00    -0.175 OA
ATOM     24  O   LIG    1       -0.232   1.088   2.633  0.00  0.00    -0.175 OA
ENDBRANCH  20  21
ENDBRANCH  19  20
ENDBRANCH  14  19
ENDBRANCH  12  14
ENDBRANCH   6  10
BRANCH   1  25
ATOM     25  C   LIG    1       -3.934   0.354   7.242  0.00  0.00    +0.194 C 
BRANCH  25  26
ATOM     26  S   LIG    1       -3.640   2.143   7.179  0.00  0.00    +0.033 S 
ATOM     27  O   LIG    1       -4.098   2.757   8.376  0.00  0.00    -0.158 OA
ATOM     28  O   LIG    1       -4.022   2.658   5.910  0.00  0.00    -0.158 OA
BRANCH  26  32
ATOM     29  N   LIG    1        0.694   1.575   7.334  0.00  0.00    -0.327 N 
ATOM     30  C   LIG    1       -0.069   1.307   6.107  0.00  0.00    +0.122 C 
ATOM     31  C   LIG    1       -1.204   2.330   5.982  0.00  0.00    +0.128 C 
ATOM     32  N   LIG    1       -1.993   2.306   7.222  0.00  0.00    -0.178 NA
ATOM     33  C   LIG    1       -1.281   2.438   8.503  0.00  0.00    +0.128 C 
ATOM     34  C   LIG    1       -0.143   1.405   8.530  0.00  0.00    +0.122 C 
BRANCH  29  41
ATOM     35  C   LIG    1        3.234   2.850   7.443  0.00  0.00    +0.045 C 
ATOM     36  C   LIG    1        3.093   1.350   7.456  0.00  0.00    -0.029 A 
ATOM     37  C   LIG    1        4.217   0.550   7.527  0.00  0.00    +0.005 A 
ATOM     38  C   LIG    1        4.089  -0.827   7.534  0.00  0.00    +0.000 A 
ATOM     39  C   LIG    1        2.835  -1.408   7.474  0.00  0.00    +0.002 A 
ATOM     40  C   LIG    1        1.707  -0.614   7.408  0.00  0.00    +0.023 A 
ATOM     41  C   LIG    1        1.833   0.769   7.402  0.00  0.00    +0.033 A 
ENDBRANCH  29  41
ENDBRANCH  26  32
ENDBRANCH  25  26
ENDBRANCH   1  25
TORSDOF 10
