REMARK  Name = ZINC06625775
REMARK                            x       y       z     vdW  Elec       q    Type
REMARK                         _______ _______ _______ _____ _____    ______ ____
ROOT
ATOM      1  N   LIG    1        1.339  -3.970  -2.292  0.00  0.00    -0.327 N 
ATOM      2  H   LIG    1        0.933  -4.465  -1.563  0.00  0.00    +0.148 HD
ENDROOT
BRANCH   1   3
ATOM      3  C   LIG    1        1.321  -2.623  -2.285  0.00  0.00    +0.130 C 
ATOM      4  S   LIG    1        2.038  -1.750  -3.571  0.00  0.00    -0.019 S 
BRANCH   3   5
ATOM      5  N   LIG    1        0.738  -1.962  -1.265  0.00  0.00    -0.327 N 
ATOM      6  H   LIG    1        0.332  -2.457  -0.536  0.00  0.00    +0.148 HD
BRANCH   5   7
ATOM      7  C   LIG    1        0.718  -0.497  -1.257  0.00  0.00    +0.103 C 
BRANCH   7   9
ATOM      8  C   LIG    1       -0.019   1.526   0.010  0.00  0.00    +0.005 C 
ATOM      9  C   LIG    1        0.002  -0.004   0.002  0.00  0.00    +0.015 C 
ENDBRANCH   7   9
ENDBRANCH   5   7
ENDBRANCH   3   5
ENDBRANCH   1   3
BRANCH   1  10
ATOM     10  C   LIG    1        1.973  -4.688  -3.401  0.00  0.00    +0.105 C 
BRANCH  10  11
ATOM     11  C   LIG    1        1.856  -6.196  -3.166  0.00  0.00    +0.040 C 
BRANCH  11  12
ATOM     12  C   LIG    1        2.518  -6.945  -4.324  0.00  0.00    +0.124 C 
BRANCH  12  13
ATOM     13  N   LIG    1        2.406  -8.389  -4.099  0.00  0.00    -0.337 N 
ATOM     14  C   LIG    1        3.300  -9.178  -3.427  0.00  0.00    +0.106 A 
ATOM     15  C   LIG    1        2.811 -10.432  -3.455  0.00  0.00    +0.130 A 
ATOM     16  N   LIG    1        1.649 -10.409  -4.126  0.00  0.00    -0.244 NA
ATOM     17  C   LIG    1        1.398  -9.188  -4.510  0.00  0.00    +0.199 A 
ENDBRANCH  12  13
ENDBRANCH  11  12
ENDBRANCH  10  11
ENDBRANCH   1  10
TORSDOF 8
