REMARK  Name = ZINC08022464
REMARK                            x       y       z     vdW  Elec       q    Type
REMARK                         _______ _______ _______ _____ _____    ______ ____
ROOT
ATOM      1  C   LIG    1       -2.849  -2.418   0.016  0.00  0.00    +0.170 A 
ATOM      2  C   LIG    1       -3.157  -3.744   0.018  0.00  0.00    +0.075 A 
ATOM      3  N   LIG    1       -4.510  -3.842  -0.002  0.00  0.00    -0.300 N 
ATOM      4  C   LIG    1       -5.247  -5.019  -0.076  0.00  0.00    +0.060 A 
ATOM      5  C   LIG    1       -6.428  -4.991  -0.832  0.00  0.00    +0.029 A 
ATOM      6  C   LIG    1       -7.186  -6.105  -0.993  0.00  0.00    +0.033 A 
ATOM      7  C   LIG    1       -6.754  -7.359  -0.374  0.00  0.00    +0.101 A 
ATOM      8  C   LIG    1       -5.576  -7.366   0.406  0.00  0.00    +0.045 A 
ATOM      9  C   LIG    1       -4.834  -6.195   0.570  0.00  0.00    +0.063 A 
ATOM     10  C   LIG    1       -3.663  -6.261   1.449  0.00  0.00    +0.249 C 
ATOM     11  N   LIG    1       -2.478  -5.686   1.254  0.00  0.00    -0.295 N 
ATOM     12  C   LIG    1       -1.433  -5.839   2.270  0.00  0.00    +0.132 C 
ATOM     13  O   LIG    1       -3.787  -6.912   2.468  0.00  0.00    -0.270 OA
ATOM     14  C   LIG    1       -5.013  -2.575   0.027  0.00  0.00    +0.205 A 
ATOM     15  C   LIG    1       -2.193  -4.902   0.047  0.00  0.00    +0.163 C 
ATOM     16  N   LIG    1       -4.022  -1.729   0.032  0.00  0.00    -0.228 NA
ENDROOT
BRANCH   7  17
ATOM     17  N   LIG    1       -7.457  -8.470  -0.542  0.00  0.00    -0.074 NA
ATOM     18  N   LIG    1       -8.393  -8.454  -1.164  0.00  0.00    -0.192 NA
ATOM     19  N   LIG    1       -9.309  -8.439  -1.772  0.00  0.00    -0.127 NA
ATOM     20  H   LIG    1      -10.012  -9.111  -1.620  0.00  0.00    +0.228 HD
ENDBRANCH   7  17
BRANCH   1  21
ATOM     21  C   LIG    1       -1.497  -1.837   0.006  0.00  0.00    +0.360 C 
ATOM     22  O   LIG    1       -0.523  -2.564  -0.007  0.00  0.00    -0.243 OA
BRANCH  21  23
ATOM     23  O   LIG    1       -1.339  -0.499   0.012  0.00  0.00    -0.460 OA
BRANCH  23  25
ATOM     24  C   LIG    1       -0.019   1.526   0.010  0.00  0.00    +0.048 C 
ATOM     25  C   LIG    1        0.002  -0.004   0.002  0.00  0.00    +0.229 C 
ENDBRANCH  23  25
ENDBRANCH  21  23
ENDBRANCH   1  21
TORSDOF 4
