REMARK  Name = ZINC06575888
REMARK                            x       y       z     vdW  Elec       q    Type
REMARK                         _______ _______ _______ _____ _____    ______ ____
ROOT
ATOM      1  C   LIG    1        2.328   0.586  -0.840  0.00  0.00    -0.018 A 
ATOM      2  C   LIG    1        2.590  -0.767  -1.068  0.00  0.00    +0.009 A 
ATOM      3  C   LIG    1        3.833  -1.274  -0.822  0.00  0.00    +0.008 A 
ATOM      4  C   LIG    1        4.845  -0.438  -0.329  0.00  0.00    -0.024 A 
ATOM      5  C   LIG    1        4.577   0.920  -0.096  0.00  0.00    +0.008 A 
ATOM      6  C   LIG    1        3.333   1.422  -0.349  0.00  0.00    +0.009 A 
ENDROOT
BRANCH   4   7
ATOM      7  C   LIG    1        6.178  -0.979  -0.059  0.00  0.00    +0.026 C 
ATOM      8  C   LIG    1        6.313  -2.174   0.620  0.00  0.00    +0.096 C 
ATOM      9  C   LIG    1        5.162  -2.817   1.286  0.00  0.00    +0.216 C 
ATOM     10  N   LIG    1        5.369  -3.986   1.926  0.00  0.00    -0.158 NA
ATOM     11  C   LIG    1        6.582  -4.555   1.974  0.00  0.00    +0.164 C 
ATOM     12  N   LIG    1        7.671  -4.027   1.398  0.00  0.00    -0.262 N 
ATOM     13  H   LIG    1        8.639  -4.544   1.474  0.00  0.00    +0.157 HD
ATOM     14  S   LIG    1        6.750  -6.035   2.816  0.00  0.00    -0.016 S 
ATOM     15  C   LIG    1        7.616  -2.863   0.718  0.00  0.00    +0.255 C 
ATOM     16  O   LIG    1        8.611  -2.394   0.199  0.00  0.00    -0.270 OA
BRANCH   9  17
ATOM     17  O   LIG    1        4.058  -2.309   1.255  0.00  0.00    -0.494 OA
ATOM     18  H   LIG    1        3.928  -1.496   0.807  0.00  0.00    +0.294 HD
ENDBRANCH   9  17
ENDBRANCH   4   7
BRANCH   1  22
ATOM     19  C   LIG    1       -1.542   2.159  -1.625  0.00  0.00    +0.000 A 
ATOM     20  C   LIG    1       -1.281   0.821  -1.862  0.00  0.00    +0.001 A 
ATOM     21  C   LIG    1       -0.028   0.304  -1.604  0.00  0.00    +0.008 A 
ATOM     22  C   LIG    1        0.979   1.135  -1.114  0.00  0.00    -0.018 A 
ATOM     23  C   LIG    1        0.712   2.483  -0.882  0.00  0.00    +0.008 A 
ATOM     24  C   LIG    1       -0.547   2.988  -1.139  0.00  0.00    +0.001 A 
ENDBRANCH   1  22
TORSDOF 3
