REMARK  Name = ZINC08075874
REMARK                            x       y       z     vdW  Elec       q    Type
REMARK                         _______ _______ _______ _____ _____    ______ ____
ROOT
ATOM      1  CA  LIG    1        1.417   2.055  -0.000  0.00  0.00    +0.036 C 
ENDROOT
BRANCH   1   2
ATOM      2  N   LIG    1        2.113   1.680   1.243  0.00  0.00    +0.387 N 
ATOM      3  H1  LIG    1        3.062   2.073   1.230  0.00  0.00    -0.089 HD
ATOM      4  H2  LIG    1        2.174   0.666   1.316  0.00  0.00    -0.089 HD
ATOM      5  H3  LIG    1        1.612   2.049   2.049  0.00  0.00    -0.089 HD
ENDBRANCH   1   2
BRANCH   1   6
ATOM      6  C   LIG    1        1.397   3.558  -0.116  0.00  0.00    +0.290 C 
ATOM      7  O   LIG    1        1.549   4.242   0.869  0.00  0.00    -0.253 OA
BRANCH   6   8
ATOM      8  OXT LIG    1        1.210   4.136  -1.313  0.00  0.00    -0.482 OA
ATOM      9  HXT LIG    1        1.092   3.606  -2.076  0.00  0.00    +0.295 HD
ENDBRANCH   6   8
ENDBRANCH   1   6
BRANCH   1  10
ATOM     10  C   LIG    1       -0.019   1.526   0.010  0.00  0.00    -0.001 C 
BRANCH  10  11
ATOM     11  C   LIG    1        0.002  -0.004   0.002  0.00  0.00    +0.034 C 
BRANCH  11  15
ATOM     12  C   LIG    1       -4.005  -1.483   0.032  0.00  0.00    +0.000 A 
ATOM     13  C   LIG    1       -3.368  -1.237  -1.170  0.00  0.00    +0.000 A 
ATOM     14  C   LIG    1       -2.072  -0.758  -1.179  0.00  0.00    +0.003 A 
ATOM     15  C   LIG    1       -1.412  -0.526   0.013  0.00  0.00    -0.047 A 
ATOM     16  C   LIG    1       -2.047  -0.777   1.215  0.00  0.00    +0.003 A 
ATOM     17  C   LIG    1       -3.345  -1.250   1.224  0.00  0.00    +0.000 A 
ENDBRANCH  11  15
ENDBRANCH  10  11
ENDBRANCH   1  10
TORSDOF 6
