REMARK  Name = ZINC06581249
REMARK                            x       y       z     vdW  Elec       q    Type
REMARK                         _______ _______ _______ _____ _____    ______ ____
ROOT
ATOM      1  C   LIG    1        7.259   4.102  -0.050  0.00  0.00    +0.186 C 
ATOM      2  O   LIG    1        7.242   5.320  -0.044  0.00  0.00    -0.287 OA
ENDROOT
BRANCH   1   6
ATOM      3  C   LIG    1       10.967   2.024  -0.100  0.00  0.00    +0.162 A 
ATOM      4  C   LIG    1        9.773   1.315  -0.090  0.00  0.00    +0.050 A 
ATOM      5  C   LIG    1        8.570   1.985  -0.075  0.00  0.00    +0.015 A 
ATOM      6  C   LIG    1        8.548   3.382  -0.067  0.00  0.00    +0.025 A 
ATOM      7  C   LIG    1        9.749   4.097  -0.082  0.00  0.00    +0.061 A 
ATOM      8  C   LIG    1       10.953   3.418  -0.093  0.00  0.00    +0.162 A 
BRANCH   3  10
ATOM      9  C   LIG    1       12.092  -0.069  -0.122  0.00  0.00    +0.277 C 
ATOM     10  O   LIG    1       12.150   1.359  -0.115  0.00  0.00    -0.491 OA
ENDBRANCH   3  10
BRANCH   8  11
ATOM     11  O   LIG    1       12.123   4.111  -0.102  0.00  0.00    -0.491 OA
ATOM     12  C   LIG    1       12.034   5.537  -0.095  0.00  0.00    +0.277 C 
ENDBRANCH   8  11
ENDBRANCH   1   6
BRANCH   1  13
ATOM     13  C   LIG    1        6.003   3.353  -0.041  0.00  0.00    +0.052 C 
ATOM     14  C   LIG    1        4.824   4.012  -0.025  0.00  0.00    +0.012 C 
BRANCH  14  15
ATOM     15  C   LIG    1        3.561   3.259  -0.016  0.00  0.00    -0.024 A 
ATOM     16  C   LIG    1        3.586   1.850  -0.023  0.00  0.00    +0.008 A 
ATOM     17  C   LIG    1        2.434   1.135  -0.016  0.00  0.00    +0.009 A 
ATOM     18  C   LIG    1        1.192   1.797   0.000  0.00  0.00    -0.018 A 
ATOM     19  C   LIG    1       -0.013   1.076   0.008  0.00  0.00    +0.008 A 
ATOM     20  C   LIG    1       -1.200   1.743   0.017  0.00  0.00    +0.001 A 
ATOM     21  C   LIG    1       -1.240   3.136   0.031  0.00  0.00    +0.001 A 
ATOM     22  C   LIG    1       -0.093   3.870   0.024  0.00  0.00    +0.008 A 
ATOM     23  C   LIG    1        1.152   3.215   0.009  0.00  0.00    -0.017 A 
ATOM     24  C   LIG    1        2.351   3.941   0.000  0.00  0.00    +0.016 A 
ENDBRANCH  14  15
ENDBRANCH   1  13
TORSDOF 5
