REMARK  Name = ZINC08214375
REMARK                            x       y       z     vdW  Elec       q    Type
REMARK                         _______ _______ _______ _____ _____    ______ ____
ROOT
ATOM      1  C   LIG    1       -0.894   1.724   1.712  0.00  0.00    +0.032 C 
ATOM      2  C   LIG    1       -2.341   1.171   1.792  0.00  0.00    +0.010 C 
ATOM      3  C   LIG    1       -2.420   0.348   3.111  0.00  0.00    +0.040 C 
ATOM      4  C   LIG    1       -1.310   0.969   3.962  0.00  0.00    +0.093 C 
ATOM      5  C   LIG    1       -0.738   0.107   5.052  0.00  0.00    -0.031 C 
ATOM      6  C   LIG    1       -1.381  -0.991   5.441  0.00  0.00    +0.049 C 
ATOM      7  C   LIG    1       -0.839  -1.815   6.527  0.00  0.00    +0.160 C 
ATOM      8  C   LIG    1        0.133  -1.142   7.472  0.00  0.00    +0.069 C 
ATOM      9  C   LIG    1        1.174  -0.408   6.629  0.00  0.00    -0.013 C 
ATOM     10  C   LIG    1        1.948  -1.433   5.798  0.00  0.00    +0.012 C 
ATOM     11  C   LIG    1        2.152   0.304   7.568  0.00  0.00    +0.041 C 
ATOM     12  C   LIG    1        1.384   1.299   8.440  0.00  0.00    +0.144 C 
ATOM     13  C   LIG    1        0.334   0.552   9.266  0.00  0.00    +0.144 C 
ATOM     14  C   LIG    1       -0.640  -0.164   8.328  0.00  0.00    +0.046 C 
ATOM     15  O   LIG    1       -1.155  -2.979   6.662  0.00  0.00    -0.292 OA
ATOM     16  C   LIG    1        0.533   0.599   5.690  0.00  0.00    +0.025 C 
ATOM     17  C   LIG    1        1.557   1.052   4.650  0.00  0.00    +0.009 C 
ATOM     18  C   LIG    1        0.926   1.935   3.561  0.00  0.00    +0.011 C 
ATOM     19  C   LIG    1       -0.175   1.128   2.912  0.00  0.00    +0.006 C 
ATOM     20  C   LIG    1        0.354  -0.262   2.552  0.00  0.00    +0.015 C 
ENDROOT
BRANCH   1  21
ATOM     21  C   LIG    1       -0.224   1.274   0.412  0.00  0.00    +0.092 C 
ATOM     22  C   LIG    1        1.256   1.662   0.441  0.00  0.00    +0.044 C 
BRANCH  21  23
ATOM     23  O   LIG    1       -0.341  -0.144   0.282  0.00  0.00    -0.386 OA
ATOM     24  H   LIG    1       -1.254  -0.463   0.258  0.00  0.00    +0.210 HD
ENDBRANCH  21  23
BRANCH  21  25
ATOM     25  C   LIG    1       -0.906   1.954  -0.776  0.00  0.00    +0.146 C 
BRANCH  25  26
ATOM     26  O   LIG    1       -2.288   1.591  -0.802  0.00  0.00    -0.389 OA
ATOM     27  H   LIG    1       -2.444   0.640  -0.889  0.00  0.00    +0.210 HD
ENDBRANCH  25  26
BRANCH  25  28
ATOM     28  C   LIG    1       -0.236   1.503  -2.075  0.00  0.00    +0.042 C 
BRANCH  28  31
ATOM     29  C   LIG    1        0.463   3.206  -5.209  0.00  0.00    +0.019 C 
ATOM     30  C   LIG    1       -0.093   1.935  -4.564  0.00  0.00    +0.101 C 
ATOM     31  C   LIG    1       -0.835   2.276  -3.253  0.00  0.00    +0.045 C 
ATOM     32  C   LIG    1       -2.277   1.806  -3.536  0.00  0.00    +0.177 C 
ATOM     33  C   LIG    1       -3.283   2.845  -3.036  0.00  0.00    +0.052 C 
ATOM     34  O   LIG    1       -2.357   1.682  -4.988  0.00  0.00    -0.461 OA
ATOM     35  C   LIG    1       -1.150   1.308  -5.450  0.00  0.00    +0.311 C 
ATOM     36  O   LIG    1       -0.944   0.598  -6.405  0.00  0.00    -0.251 OA
ENDBRANCH  28  31
ENDBRANCH  25  28
ENDBRANCH  21  25
ENDBRANCH   1  21
BRANCH   4  37
ATOM     37  O   LIG    1       -1.707   2.240   4.480  0.00  0.00    -0.384 OA
ATOM     38  H   LIG    1       -2.413   2.193   5.139  0.00  0.00    +0.211 HD
ENDBRANCH   4  37
BRANCH  12  39
ATOM     39  O   LIG    1        2.294   1.965   9.318  0.00  0.00    -0.389 OA
ATOM     40  H   LIG    1        1.876   2.612   9.902  0.00  0.00    +0.210 HD
ENDBRANCH  12  39
BRANCH  13  41
ATOM     41  O   LIG    1        0.982  -0.408  10.103  0.00  0.00    -0.389 OA
ATOM     42  H   LIG    1        1.615  -0.024  10.726  0.00  0.00    +0.210 HD
ENDBRANCH  13  41
TORSDOF 9
