REMARK  Name = ZINC07735882
REMARK                            x       y       z     vdW  Elec       q    Type
REMARK                         _______ _______ _______ _____ _____    ______ ____
ROOT
ATOM      1  N   LIG    1       -0.011   0.966   0.007  0.00  0.00    -0.299 N 
ATOM      2  H   LIG    1       -0.024   0.531   0.875  0.00  0.00    +0.154 HD
ENDROOT
BRANCH   1   6
ATOM      3  C   LIG    1        2.525   2.504  -3.902  0.00  0.00    +0.066 C 
ATOM      4  C   LIG    1        2.463   1.996  -2.484  0.00  0.00    +0.045 A 
ATOM      5  C   LIG    1        1.229   1.717  -1.902  0.00  0.00    +0.067 A 
ATOM      6  C   LIG    1        1.192   1.252  -0.602  0.00  0.00    +0.130 A 
ATOM      7  N   LIG    1        2.369   1.086   0.070  0.00  0.00    -0.182 N 
ATOM      8  C   LIG    1        3.556   1.369  -0.545  0.00  0.00    +0.255 A 
ATOM      9  N   LIG    1        4.522   1.113   0.331  0.00  0.00    -0.197 NA
ATOM     10  C   LIG    1        3.991   0.691   1.473  0.00  0.00    +0.247 A 
ATOM     11  N   LIG    1        2.686   0.651   1.363  0.00  0.00    -0.151 NA
ATOM     12  N   LIG    1        3.577   1.819  -1.804  0.00  0.00    -0.216 NA
ENDBRANCH   1   6
BRANCH   1  13
ATOM     13  C   LIG    1       -1.212   1.297  -0.627  0.00  0.00    +0.032 A 
ATOM     14  C   LIG    1       -1.344   2.520  -1.272  0.00  0.00    +0.023 A 
ATOM     15  C   LIG    1       -2.530   2.841  -1.902  0.00  0.00    +0.006 A 
ATOM     16  C   LIG    1       -3.589   1.952  -1.882  0.00  0.00    -0.042 A 
ATOM     17  C   LIG    1       -3.462   0.736  -1.236  0.00  0.00    +0.006 A 
ATOM     18  C   LIG    1       -2.277   0.406  -0.609  0.00  0.00    +0.023 A 
BRANCH  16  19
ATOM     19  C   LIG    1       -4.884   2.308  -2.566  0.00  0.00    -0.013 C 
ATOM     20  C   LIG    1       -5.186   1.277  -3.655  0.00  0.00    +0.015 C 
ATOM     21  C   LIG    1       -4.761   3.696  -3.198  0.00  0.00    +0.015 C 
ATOM     22  C   LIG    1       -6.018   2.314  -1.540  0.00  0.00    +0.015 C 
ENDBRANCH  16  19
ENDBRANCH   1  13
TORSDOF 3
