REMARK  Name = ZINC08143662
REMARK                            x       y       z     vdW  Elec       q    Type
REMARK                         _______ _______ _______ _____ _____    ______ ____
ROOT
ATOM      1  C   LIG    1       -3.174   6.690  -0.302  0.00  0.00    +0.224 C 
ATOM      2  O   LIG    1       -2.783   6.854   1.071  0.00  0.00    -0.339 OA
ATOM      3  C   LIG    1       -2.271   5.558   1.467  0.00  0.00    +0.194 C 
ATOM      4  C   LIG    1       -1.571   5.086   0.168  0.00  0.00    +0.134 C 
ATOM      5  O   LIG    1       -2.425   5.608  -0.870  0.00  0.00    -0.337 OA
ENDROOT
BRANCH   4   6
ATOM      6  C   LIG    1       -1.519   3.558   0.108  0.00  0.00    -0.040 C 
ATOM      7  N   LIG    1       -0.765   3.055   1.272  0.00  0.00    +0.383 N 
ATOM      8  H   LIG    1        0.196   3.416   1.235  0.00  0.00    -0.085 HD
ATOM      9  H   LIG    1       -1.219   3.379   2.134  0.00  0.00    -0.085 HD
ATOM     10  C   LIG    1       -0.731   1.580   1.266  0.00  0.00    -0.082 C 
ATOM     11  C   LIG    1       -0.013   1.086   0.008  0.00  0.00    -0.019 C 
ATOM     12  C   LIG    1       -0.755   1.594  -1.231  0.00  0.00    -0.003 C 
ATOM     13  C   LIG    1       -0.823   3.123  -1.184  0.00  0.00    -0.013 C 
ENDBRANCH   4   6
BRANCH   1  17
ATOM     14  C   LIG    1       -7.349   5.810  -0.509  0.00  0.00    +0.000 A 
ATOM     15  C   LIG    1       -6.859   6.598   0.515  0.00  0.00    +0.000 A 
ATOM     16  C   LIG    1       -5.508   6.883   0.582  0.00  0.00    +0.009 A 
ATOM     17  C   LIG    1       -4.647   6.380  -0.375  0.00  0.00    +0.016 A 
ATOM     18  C   LIG    1       -5.138   5.596  -1.403  0.00  0.00    +0.009 A 
ATOM     19  C   LIG    1       -6.488   5.307  -1.467  0.00  0.00    +0.000 A 
ENDBRANCH   1  17
BRANCH   1  20
ATOM     20  C   LIG    1       -2.889   7.958  -1.064  0.00  0.00    +0.016 A 
ATOM     21  C   LIG    1       -2.956   9.181  -0.422  0.00  0.00    +0.009 A 
ATOM     22  C   LIG    1       -2.690  10.344  -1.120  0.00  0.00    +0.000 A 
ATOM     23  C   LIG    1       -2.366  10.285  -2.463  0.00  0.00    +0.000 A 
ATOM     24  C   LIG    1       -2.304   9.063  -3.106  0.00  0.00    +0.000 A 
ATOM     25  C   LIG    1       -2.566   7.900  -2.407  0.00  0.00    +0.009 A 
ENDBRANCH   1  20
TORSDOF 3
