REMARK  Name = ZINC07041622
REMARK                            x       y       z     vdW  Elec       q    Type
REMARK                         _______ _______ _______ _____ _____    ______ ____
ROOT
ATOM      1  C   LIG    1       -2.306  -3.812   4.288  0.00  0.00    -0.020 C 
ATOM      2  C   LIG    1       -2.288  -2.511   5.135  0.00  0.00    +0.003 C 
ATOM      3  C   LIG    1       -1.426  -1.487   4.350  0.00  0.00    +0.004 C 
ATOM      4  C   LIG    1       -1.256  -2.137   2.968  0.00  0.00    -0.001 C 
ATOM      5  C   LIG    1       -0.139  -1.619   2.119  0.00  0.00    +0.000 C 
ATOM      6  C   LIG    1        0.927  -0.826   2.873  0.00  0.00    +0.031 C 
ATOM      7  C   LIG    1        1.911  -0.330   1.843  0.00  0.00    -0.027 C 
ATOM      8  C   LIG    1        2.103  -0.917   0.701  0.00  0.00    -0.065 C 
ATOM      9  C   LIG    1        1.407  -2.182   0.259  0.00  0.00    -0.008 C 
ATOM     10  C   LIG    1        2.473  -3.214  -0.125  0.00  0.00    +0.016 C 
ATOM     11  C   LIG    1        0.563  -1.866  -0.971  0.00  0.00    +0.014 C 
ATOM     12  C   LIG    1        0.855  -0.449  -1.462  0.00  0.00    +0.032 C 
ATOM     13  C   LIG    1        2.349  -0.200  -1.640  0.00  0.00    +0.119 C 
ATOM     14  C   LIG    1        3.071  -0.296  -0.291  0.00  0.00    +0.062 C 
ATOM     15  C   LIG    1        0.575  -2.768   1.391  0.00  0.00    +0.003 C 
ATOM     16  C   LIG    1       -0.460  -3.775   0.912  0.00  0.00    +0.005 C 
ATOM     17  C   LIG    1       -1.093  -4.509   2.108  0.00  0.00    +0.007 C 
ATOM     18  C   LIG    1       -1.115  -3.629   3.329  0.00  0.00    -0.028 C 
ATOM     19  C   LIG    1        0.145  -3.885   4.177  0.00  0.00    +0.011 C 
ENDROOT
BRANCH   1  21
ATOM     20  C   LIG    1       -4.746  -4.260   4.540  0.00  0.00    -0.014 C 
ATOM     21  C   LIG    1       -3.631  -3.930   3.545  0.00  0.00    -0.075 C 
BRANCH  21  22
ATOM     22  N   LIG    1       -3.913  -2.657   2.860  0.00  0.00    +0.380 N 
ATOM     23  H   LIG    1       -3.171  -2.471   2.174  0.00  0.00    -0.090 HD
ATOM     24  H   LIG    1       -3.939  -1.895   3.535  0.00  0.00    -0.090 HD
ATOM     25  H   LIG    1       -4.807  -2.711   2.375  0.00  0.00    -0.090 HD
ENDBRANCH  21  22
ENDBRANCH   1  21
BRANCH  13  26
ATOM     26  O   LIG    1        2.896  -1.153  -2.554  0.00  0.00    -0.391 OA
ATOM     27  H   LIG    1        3.844  -1.048  -2.710  0.00  0.00    +0.210 HD
ENDBRANCH  13  26
TORSDOF 3
