REMARK  Name = ZINC07041634
REMARK                            x       y       z     vdW  Elec       q    Type
REMARK                         _______ _______ _______ _____ _____    ______ ____
ROOT
ATOM      1  C   LIG    1       -0.362   2.201   1.752  0.00  0.00    -0.020 C 
ATOM      2  C   LIG    1        1.016   2.177   2.457  0.00  0.00    +0.003 C 
ATOM      3  C   LIG    1        2.080   2.423   1.352  0.00  0.00    +0.004 C 
ATOM      4  C   LIG    1        1.243   2.946   0.175  0.00  0.00    -0.001 C 
ATOM      5  C   LIG    1        1.881   2.954  -1.176  0.00  0.00    +0.000 C 
ATOM      6  C   LIG    1        3.103   2.047  -1.318  0.00  0.00    +0.031 C 
ATOM      7  C   LIG    1        3.642   2.259  -2.712  0.00  0.00    -0.027 C 
ATOM      8  C   LIG    1        2.905   2.653  -3.706  0.00  0.00    -0.065 C 
ATOM      9  C   LIG    1        1.421   2.918  -3.620  0.00  0.00    -0.008 C 
ATOM     10  C   LIG    1        0.715   2.052  -4.670  0.00  0.00    +0.016 C 
ATOM     11  C   LIG    1        1.169   4.384  -3.950  0.00  0.00    +0.014 C 
ATOM     12  C   LIG    1        2.455   5.042  -4.451  0.00  0.00    +0.032 C 
ATOM     13  C   LIG    1        3.104   4.241  -5.576  0.00  0.00    +0.119 C 
ATOM     14  C   LIG    1        3.550   2.865  -5.064  0.00  0.00    +0.062 C 
ATOM     15  C   LIG    1        0.875   2.528  -2.255  0.00  0.00    +0.003 C 
ATOM     16  C   LIG    1       -0.484   3.144  -1.957  0.00  0.00    +0.005 C 
ATOM     17  C   LIG    1       -1.092   2.540  -0.681  0.00  0.00    +0.007 C 
ATOM     18  C   LIG    1       -0.013   2.055   0.254  0.00  0.00    -0.028 C 
ATOM     19  C   LIG    1        0.298   0.576   0.015  0.00  0.00    +0.011 C 
ENDROOT
BRANCH   1  21
ATOM     20  C   LIG    1       -2.559   1.050   1.469  0.00  0.00    -0.014 C 
ATOM     21  C   LIG    1       -1.216   1.017   2.201  0.00  0.00    -0.075 C 
BRANCH  21  22
ATOM     22  N   LIG    1       -1.462   1.081   3.653  0.00  0.00    +0.380 N 
ATOM     23  H   LIG    1       -2.090   0.314   3.923  0.00  0.00    -0.090 HD
ATOM     24  H   LIG    1       -1.898   1.969   3.894  0.00  0.00    -0.090 HD
ATOM     25  H   LIG    1       -0.584   0.985   4.160  0.00  0.00    -0.090 HD
ENDBRANCH  21  22
ENDBRANCH   1  21
BRANCH  13  26
ATOM     26  O   LIG    1        2.180   4.081  -6.654  0.00  0.00    -0.391 OA
ATOM     27  H   LIG    1        2.539   3.601  -7.413  0.00  0.00    +0.210 HD
ENDBRANCH  13  26
TORSDOF 3
