REMARK  Name = ZINC05925092
REMARK                            x       y       z     vdW  Elec       q    Type
REMARK                         _______ _______ _______ _____ _____    ______ ____
ROOT
ATOM      1  C   LIG    1        4.931  -2.707  -0.062  0.00  0.00    +0.190 A 
ATOM      2  N   LIG    1        6.170  -2.235  -0.066  0.00  0.00    -0.124 NA
ATOM      3  N   LIG    1        7.174  -2.999  -0.082  0.00  0.00    -0.119 NA
ATOM      4  C   LIG    1        7.056  -4.312  -0.095  0.00  0.00    +0.256 A 
ATOM      5  S   LIG    1        5.272  -4.465  -0.075  0.00  0.00    -0.011 S 
ENDROOT
BRANCH   1   7
ATOM      6  C   LIG    1        3.695  -0.684  -0.038  0.00  0.00    +0.250 C 
ATOM      7  N   LIG    1        3.717  -2.032  -0.046  0.00  0.00    -0.259 N 
ATOM      8  H   LIG    1        2.885  -2.530  -0.040  0.00  0.00    +0.157 HD
ATOM      9  O   LIG    1        4.738  -0.059  -0.046  0.00  0.00    -0.270 OA
BRANCH   6  13
ATOM     10  C   LIG    1       -0.017   1.379   0.010  0.00  0.00    +0.000 A 
ATOM     11  C   LIG    1        1.168   2.094   0.002  0.00  0.00    +0.001 A 
ATOM     12  C   LIG    1        2.377   1.429  -0.013  0.00  0.00    +0.013 A 
ATOM     13  C   LIG    1        2.404   0.034  -0.021  0.00  0.00    +0.037 A 
ATOM     14  C   LIG    1        1.204  -0.681  -0.013  0.00  0.00    +0.013 A 
ATOM     15  C   LIG    1        0.002  -0.004   0.002  0.00  0.00    +0.001 A 
ENDBRANCH   6  13
ENDBRANCH   1   7
BRANCH   4  16
ATOM     16  S   LIG    1        8.300  -5.560  -0.117  0.00  0.00    +0.081 S 
ATOM     17  O   LIG    1        7.802  -6.615  -0.928  0.00  0.00    -0.151 OA
ATOM     18  O   LIG    1        8.699  -5.759   1.232  0.00  0.00    -0.151 OA
BRANCH  16  19
ATOM     19  N   LIG    1        9.610  -4.931  -0.911  0.00  0.00    -0.202 NA
ATOM     20  H   LIG    1        9.891  -4.095  -0.399  0.00  0.00    +0.144 HD
ATOM     21  H   LIG    1       10.409  -5.468  -1.030  0.00  0.00    +0.144 HD
ENDBRANCH  16  19
ENDBRANCH   4  16
TORSDOF 4
