REMARK  Name = ZINC06092279
REMARK                            x       y       z     vdW  Elec       q    Type
REMARK                         _______ _______ _______ _____ _____    ______ ____
ROOT
ATOM      1  C   LIG    1        6.119   3.843   2.021  0.00  0.00    +0.015 A 
ATOM      2  C   LIG    1        7.314   4.244   1.450  0.00  0.00    +0.050 A 
ATOM      3  C   LIG    1        8.179   3.376   0.780  0.00  0.00    +0.159 A 
ATOM      4  C   LIG    1        7.797   2.029   0.675  0.00  0.00    +0.167 A 
ATOM      5  C   LIG    1        6.577   1.668   1.209  0.00  0.00    +0.021 A 
ATOM      6  C   LIG    1        6.343   0.204   0.915  0.00  0.00    +0.070 C 
ATOM      7  C   LIG    1        7.776  -0.258   0.668  0.00  0.00    +0.252 C 
ATOM      8  C   LIG    1        8.484  -0.594   1.948  0.00  0.00    +0.175 C 
ATOM      9  C   LIG    1        7.767  -1.035   3.188  0.00  0.00    +0.081 C 
ATOM     10  C   LIG    1        6.488  -0.217   3.376  0.00  0.00    +0.042 C 
ATOM     11  O   LIG    1        9.688  -0.506   1.980  0.00  0.00    -0.293 OA
ATOM     12  C   LIG    1        5.475   0.050  -0.332  0.00  0.00    -0.000 C 
ATOM     13  C   LIG    1        4.138   0.760  -0.092  0.00  0.00    -0.077 C 
ATOM     14  N   LIG    1        3.479   0.178   1.097  0.00  0.00    +0.389 N 
ATOM     15  H   LIG    1        3.370  -0.833   0.955  0.00  0.00    -0.081 HD
ATOM     16  C   LIG    1        4.306   0.404   2.308  0.00  0.00    +0.037 C 
ATOM     17  C   LIG    1        4.539   1.887   2.506  0.00  0.00    +0.153 C 
ATOM     18  O   LIG    1        3.750   2.550   3.145  0.00  0.00    -0.294 OA
ATOM     19  C   LIG    1        5.623  -0.366   2.125  0.00  0.00    +0.075 C 
ATOM     20  O   LIG    1        8.400   0.950   0.132  0.00  0.00    -0.476 OA
ATOM     21  C   LIG    1        5.725   2.511   1.926  0.00  0.00    +0.023 A 
ENDROOT
BRANCH   3  22
ATOM     22  O   LIG    1        9.347   3.818   0.249  0.00  0.00    -0.503 OA
ATOM     23  H   LIG    1        9.273   4.123  -0.666  0.00  0.00    +0.292 HD
ENDBRANCH   3  22
BRANCH  19  24
ATOM     24  O   LIG    1        5.340  -1.750   1.903  0.00  0.00    -0.389 OA
ATOM     25  H   LIG    1        4.859  -2.174   2.627  0.00  0.00    +0.210 HD
ENDBRANCH  19  24
BRANCH  14  26
ATOM     26  C   LIG    1        2.144   0.783   1.280  0.00  0.00    -0.074 C 
BRANCH  26  27
ATOM     27  C   LIG    1        1.397   0.003   2.364  0.00  0.00    -0.028 C 
ATOM     28  C   LIG    1       -0.061   0.384   2.629  0.00  0.00    +0.002 C 
ATOM     29  C   LIG    1        1.023   0.754   3.643  0.00  0.00    +0.002 C 
ENDBRANCH  26  27
ENDBRANCH  14  26
TORSDOF 4
