REMARK  Name = ZINC06380162
REMARK                            x       y       z     vdW  Elec       q    Type
REMARK                         _______ _______ _______ _____ _____    ______ ____
ROOT
ATOM      1  C   LIG    1       -0.637   2.552   1.065  0.00  0.00    -0.011 A 
ATOM      2  C   LIG    1       -0.626   3.895   1.261  0.00  0.00    +0.010 A 
ATOM      3  C   LIG    1        0.548   4.582   1.602  0.00  0.00    -0.043 A 
ATOM      4  C   LIG    1        1.717   3.910   1.745  0.00  0.00    -0.036 A 
ATOM      5  C   LIG    1        3.008   4.587   2.126  0.00  0.00    +0.036 C 
ATOM      6  C   LIG    1        2.919   6.093   1.893  0.00  0.00    +0.005 C 
ATOM      7  C   LIG    1        1.642   6.607   2.569  0.00  0.00    +0.005 C 
ATOM      8  C   LIG    1        1.746   2.514   1.541  0.00  0.00    -0.014 A 
ATOM      9  C   LIG    1        2.945   1.792   1.677  0.00  0.00    +0.009 A 
ATOM     10  C   LIG    1        2.946   0.446   1.475  0.00  0.00    +0.001 A 
ATOM     11  C   LIG    1        1.776  -0.230   1.135  0.00  0.00    +0.001 A 
ATOM     12  C   LIG    1        0.597   0.436   0.994  0.00  0.00    +0.009 A 
ATOM     13  C   LIG    1        0.441   6.074   1.792  0.00  0.00    +0.035 C 
ATOM     14  C   LIG    1        0.559   1.827   1.195  0.00  0.00    -0.012 A 
ENDROOT
BRANCH   1  15
ATOM     15  C   LIG    1       -1.919   1.847   0.706  0.00  0.00    +0.143 C 
BRANCH  15  16
ATOM     16  O   LIG    1       -2.812   2.771   0.079  0.00  0.00    -0.387 OA
ATOM     17  H   LIG    1       -3.048   3.527   0.633  0.00  0.00    +0.210 HD
ENDBRANCH  15  16
BRANCH  15  18
ATOM     18  C   LIG    1       -2.569   1.292   1.975  0.00  0.00    +0.017 C 
BRANCH  18  19
ATOM     19  C   LIG    1       -3.803   0.470   1.599  0.00  0.00    -0.076 C 
BRANCH  19  20
ATOM     20  N   LIG    1       -4.431  -0.041   2.835  0.00  0.00    +0.380 N 
ATOM     21  H   LIG    1       -4.577   0.742   3.483  0.00  0.00    -0.082 HD
BRANCH  20  22
ATOM     22  C   LIG    1       -5.739  -0.655   2.522  0.00  0.00    -0.079 C 
BRANCH  22  24
ATOM     23  C   LIG    1       -8.153  -0.154   2.120  0.00  0.00    +0.002 C 
ATOM     24  C   LIG    1       -6.764   0.460   2.305  0.00  0.00    -0.022 C 
ENDBRANCH  22  24
ENDBRANCH  20  22
BRANCH  20  25
ATOM     25  C   LIG    1       -3.546  -1.037   3.476  0.00  0.00    -0.079 C 
BRANCH  25  26
ATOM     26  C   LIG    1       -4.025  -1.268   4.911  0.00  0.00    -0.022 C 
ATOM     27  C   LIG    1       -3.120  -2.297   5.591  0.00  0.00    +0.002 C 
ENDBRANCH  25  26
ENDBRANCH  20  25
ENDBRANCH  19  20
ENDBRANCH  18  19
ENDBRANCH  15  18
ENDBRANCH   1  15
TORSDOF 9
