REMARK  Name = ZINC06744035
REMARK                            x       y       z     vdW  Elec       q    Type
REMARK                         _______ _______ _______ _____ _____    ______ ____
ROOT
ATOM      1  C   LIG    1        0.348   3.765  -0.101  0.00  0.00    +0.074 A 
ATOM      2  C   LIG    1       -0.976   3.375  -0.046  0.00  0.00    +0.029 A 
ATOM      3  C   LIG    1       -1.243   2.023  -0.169  0.00  0.00    -0.010 A 
ATOM      4  C   LIG    1       -0.181   1.156  -0.326  0.00  0.00    +0.054 A 
ATOM      5  S   LIG    1        1.194   2.211  -0.318  0.00  0.00    -0.091 S 
ENDROOT
BRANCH   3   6
ATOM      6  C   LIG    1       -2.637   1.518  -0.128  0.00  0.00    -0.017 A 
ATOM      7  C   LIG    1       -3.697   2.409   0.036  0.00  0.00    +0.009 A 
ATOM      8  C   LIG    1       -4.992   1.940   0.069  0.00  0.00    +0.009 A 
ATOM      9  C   LIG    1       -5.242   0.573  -0.052  0.00  0.00    -0.018 A 
ATOM     10  C   LIG    1       -4.181  -0.319  -0.211  0.00  0.00    +0.009 A 
ATOM     11  C   LIG    1       -2.887   0.151  -0.249  0.00  0.00    +0.009 A 
BRANCH   9  12
ATOM     12  C   LIG    1       -6.635   0.068  -0.012  0.00  0.00    -0.015 A 
ATOM     13  C   LIG    1       -6.908  -1.298  -0.137  0.00  0.00    +0.028 A 
ATOM     14  C   LIG    1       -8.218  -1.726  -0.088  0.00  0.00    +0.111 A 
ATOM     15  N   LIG    1       -9.207  -0.865   0.063  0.00  0.00    -0.263 NA
ATOM     16  C   LIG    1       -8.993   0.432   0.179  0.00  0.00    +0.111 A 
ATOM     17  C   LIG    1       -7.713   0.944   0.147  0.00  0.00    +0.028 A 
ENDBRANCH   9  12
ENDBRANCH   3   6
BRANCH   1  20
ATOM     18  N   LIG    1        2.248   5.293  -0.081  0.00  0.00    -0.304 N 
ATOM     19  H   LIG    1        2.838   4.525  -0.127  0.00  0.00    +0.150 HD
ATOM     20  C   LIG    1        0.914   5.115  -0.005  0.00  0.00    +0.251 C 
ATOM     21  O   LIG    1        0.179   6.073   0.144  0.00  0.00    -0.270 OA
BRANCH  18  22
ATOM     22  C   LIG    1        2.806   6.648  -0.096  0.00  0.00    +0.114 C 
BRANCH  22  26
ATOM     23  C   LIG    1        3.338   8.012   3.917  0.00  0.00    +0.000 A 
ATOM     24  C   LIG    1        2.871   8.880   2.948  0.00  0.00    +0.000 A 
ATOM     25  C   LIG    1        2.699   8.438   1.649  0.00  0.00    +0.005 A 
ATOM     26  C   LIG    1        2.994   7.129   1.320  0.00  0.00    -0.027 A 
ATOM     27  C   LIG    1        3.456   6.259   2.290  0.00  0.00    +0.005 A 
ATOM     28  C   LIG    1        3.633   6.702   3.587  0.00  0.00    +0.000 A 
ENDBRANCH  22  26
BRANCH  22  29
ATOM     29  C   LIG    1        4.157   6.635  -0.814  0.00  0.00    +0.147 C 
BRANCH  29  30
ATOM     30  C   LIG    1        3.951   6.287  -2.266  0.00  0.00    +0.307 C 
ATOM     31  O   LIG    1        2.849   5.992  -2.666  0.00  0.00    -0.251 OA
BRANCH  30  32
ATOM     32  O   LIG    1        4.991   6.304  -3.114  0.00  0.00    -0.481 OA
ATOM     33  H   LIG    1        5.845   6.533  -2.804  0.00  0.00    +0.295 HD
ENDBRANCH  30  32
ENDBRANCH  29  30
ENDBRANCH  22  29
ENDBRANCH  18  22
ENDBRANCH   1  20
TORSDOF 8
