REMARK  Name = ZINC08451844
REMARK                            x       y       z     vdW  Elec       q    Type
REMARK                         _______ _______ _______ _____ _____    ______ ____
ROOT
ATOM      1  N   LIG    1       -0.237  -5.874  -3.032  0.00  0.00    -0.219 N 
ATOM      2  C   LIG    1       -1.428  -6.140  -3.541  0.00  0.00    +0.261 C 
ATOM      3  C   LIG    1       -1.485  -6.853  -4.777  0.00  0.00    +0.081 C 
ATOM      4  S   LIG    1        0.254  -7.090  -5.115  0.00  0.00    -0.026 S 
ATOM      5  C   LIG    1       -2.571  -7.246  -5.502  0.00  0.00    +0.046 C 
ATOM      6  O   LIG    1       -2.446  -5.787  -2.973  0.00  0.00    -0.269 OA
ATOM      7  C   LIG    1        0.892  -6.261  -3.666  0.00  0.00    +0.286 C 
ATOM      8  O   LIG    1        2.050  -6.090  -3.333  0.00  0.00    -0.262 OA
ENDROOT
BRANCH   5   9
ATOM      9  C   LIG    1       -2.399  -8.048  -6.654  0.00  0.00    +0.048 A 
ATOM     10  C   LIG    1       -1.192  -8.412  -7.226  0.00  0.00    +0.027 A 
ATOM     11  C   LIG    1       -1.487  -9.203  -8.341  0.00  0.00    +0.020 A 
ATOM     12  C   LIG    1       -2.834  -9.309  -8.434  0.00  0.00    +0.092 A 
ATOM     13  N   LIG    1       -3.403  -8.616  -7.410  0.00  0.00    -0.316 N 
BRANCH  13  14
ATOM     14  C   LIG    1       -4.777  -8.497  -7.166  0.00  0.00    +0.047 A 
ATOM     15  C   LIG    1       -5.300  -8.870  -5.933  0.00  0.00    +0.026 A 
ATOM     16  C   LIG    1       -6.655  -8.754  -5.687  0.00  0.00    +0.003 A 
ATOM     17  C   LIG    1       -7.500  -8.268  -6.664  0.00  0.00    +0.015 A 
ATOM     18  C   LIG    1       -6.985  -7.890  -7.907  0.00  0.00    +0.061 A 
ATOM     19  C   LIG    1       -5.615  -8.002  -8.153  0.00  0.00    +0.041 A 
BRANCH  18  20
ATOM     20  C   LIG    1       -7.885  -7.369  -8.954  0.00  0.00    +0.337 C 
ATOM     21  O   LIG    1       -9.084  -7.268  -8.735  0.00  0.00    -0.245 OA
BRANCH  20  22
ATOM     22  O   LIG    1       -7.432  -7.039 -10.041  0.00  0.00    -0.477 OA
ATOM     23  H   LIG    1       -6.514  -7.117 -10.209  0.00  0.00    +0.295 HD
ENDBRANCH  20  22
ENDBRANCH  18  20
ENDBRANCH  13  14
ENDBRANCH   5   9
BRANCH   1  24
ATOM     24  C   LIG    1       -0.140  -5.144  -1.766  0.00  0.00    +0.213 C 
BRANCH  24  27
ATOM     25  N   LIG    1        0.009  -2.790  -1.021  0.00  0.00    -0.284 N 
ATOM     26  H   LIG    1        0.105  -3.115  -0.112  0.00  0.00    +0.155 HD
ATOM     27  C   LIG    1       -0.083  -3.663  -2.043  0.00  0.00    +0.235 C 
ATOM     28  O   LIG    1       -0.120  -3.258  -3.186  0.00  0.00    -0.274 OA
BRANCH  25  33
ATOM     29  C   LIG    1       -0.173   2.789  -2.034  0.00  0.00    +0.044 C 
ATOM     30  C   LIG    1       -0.124   1.307  -1.765  0.00  0.00    -0.050 A 
ATOM     31  C   LIG    1        0.466   0.458  -2.683  0.00  0.00    +0.005 A 
ATOM     32  C   LIG    1        0.512  -0.901  -2.439  0.00  0.00    +0.024 A 
ATOM     33  C   LIG    1       -0.036  -1.414  -1.271  0.00  0.00    +0.036 A 
ATOM     34  C   LIG    1       -0.628  -0.558  -0.351  0.00  0.00    -0.029 A 
ATOM     35  C   LIG    1       -1.223  -1.111   0.918  0.00  0.00    +0.045 C 
ATOM     36  C   LIG    1       -0.666   0.800  -0.598  0.00  0.00    +0.008 A 
ENDBRANCH  25  33
ENDBRANCH  24  27
ENDBRANCH   1  24
TORSDOF 7
