REMARK  Name = ZINC06500184
REMARK                            x       y       z     vdW  Elec       q    Type
REMARK                         _______ _______ _______ _____ _____    ______ ____
ROOT
ATOM      1  C   LIG    1       -0.019   1.526   0.010  0.00  0.00    +0.014 C 
ATOM      2  C   LIG    1        0.002  -0.004   0.002  0.00  0.00    -0.003 C 
ATOM      3  C   LIG    1       -1.416  -0.538   0.073  0.00  0.00    +0.010 C 
ATOM      4  C   LIG    1       -2.078   0.099   1.306  0.00  0.00    +0.005 C 
ATOM      5  C   LIG    1       -1.298  -0.201   2.583  0.00  0.00    +0.003 C 
ATOM      6  C   LIG    1        0.174   0.214   2.465  0.00  0.00    +0.000 C 
ATOM      7  C   LIG    1        0.896  -0.223   3.745  0.00  0.00    +0.031 C 
ATOM      8  C   LIG    1        0.210   0.405   4.925  0.00  0.00    -0.026 C 
ATOM      9  C   LIG    1       -1.051   0.725   4.918  0.00  0.00    -0.060 C 
ATOM     10  C   LIG    1       -1.633   1.363   6.171  0.00  0.00    +0.105 C 
ATOM     11  C   LIG    1       -2.913   0.648   6.484  0.00  0.00    +0.137 C 
ATOM     12  O   LIG    1       -3.178   0.261   7.597  0.00  0.00    -0.297 OA
ATOM     13  C   LIG    1       -3.891   0.466   5.344  0.00  0.00    +0.075 C 
ATOM     14  C   LIG    1       -3.189  -0.281   4.207  0.00  0.00    +0.019 C 
ATOM     15  C   LIG    1       -1.951   0.502   3.762  0.00  0.00    -0.007 C 
ATOM     16  C   LIG    1       -2.424   1.880   3.293  0.00  0.00    +0.016 C 
ATOM     17  C   LIG    1        0.863  -0.503  -1.154  0.00  0.00    +0.121 C 
ATOM     18  C   LIG    1        2.304  -0.573  -0.591  0.00  0.00    +0.032 C 
ATOM     19  C   LIG    1        2.207  -0.192   0.912  0.00  0.00    +0.007 C 
ATOM     20  C   LIG    1        0.751  -0.527   1.257  0.00  0.00    +0.001 C 
ENDROOT
BRANCH  17  21
ATOM     21  O   LIG    1        0.803   0.414  -2.248  0.00  0.00    -0.391 OA
ATOM     22  H   LIG    1        1.332   0.149  -3.013  0.00  0.00    +0.210 HD
ENDBRANCH  17  21
TORSDOF 1
