REMARK  Name = ZINC08553066
REMARK                            x       y       z     vdW  Elec       q    Type
REMARK                         _______ _______ _______ _____ _____    ______ ____
ROOT
ATOM      1  N   LIG    1        5.944  -1.946   2.764  0.00  0.00    +0.382 N 
ATOM      2  H   LIG    1        5.222  -2.445   3.263  0.00  0.00    -0.082 HD
ATOM      3  C   LIG    1        6.207  -0.668   3.437  0.00  0.00    -0.060 C 
ATOM      4  C   LIG    1        6.562  -0.929   4.905  0.00  0.00    +0.086 C 
ATOM      5  N   LIG    1        7.682  -1.881   4.952  0.00  0.00    -0.333 N 
ATOM      6  C   LIG    1        7.570  -3.122   4.169  0.00  0.00    +0.086 C 
ATOM      7  C   LIG    1        7.167  -2.758   2.736  0.00  0.00    -0.060 C 
ENDROOT
BRANCH   5   8
ATOM      8  C   LIG    1        8.819  -1.616   5.718  0.00  0.00    +0.030 A 
ATOM      9  C   LIG    1        8.955  -0.392   6.360  0.00  0.00    +0.023 A 
ATOM     10  C   LIG    1       10.081  -0.132   7.117  0.00  0.00    +0.002 A 
ATOM     11  C   LIG    1       11.072  -1.089   7.236  0.00  0.00    +0.000 A 
ATOM     12  C   LIG    1       10.939  -2.309   6.598  0.00  0.00    +0.002 A 
ATOM     13  C   LIG    1        9.814  -2.577   5.844  0.00  0.00    +0.023 A 
ENDBRANCH   5   8
BRANCH   1  14
ATOM     14  C   LIG    1        5.497  -1.690   1.388  0.00  0.00    -0.078 C 
BRANCH  14  15
ATOM     15  C   LIG    1        4.157  -0.952   1.416  0.00  0.00    -0.014 C 
BRANCH  15  16
ATOM     16  C   LIG    1        3.692  -0.685  -0.017  0.00  0.00    +0.033 C 
BRANCH  16  20
ATOM     17  C   LIG    1       -0.049   1.375   0.058  0.00  0.00    +0.000 A 
ATOM     18  C   LIG    1        1.134   2.091   0.055  0.00  0.00    +0.000 A 
ATOM     19  C   LIG    1        2.345   1.424   0.031  0.00  0.00    +0.003 A 
ATOM     20  C   LIG    1        2.373   0.042   0.010  0.00  0.00    -0.047 A 
ATOM     21  C   LIG    1        1.190  -0.673   0.015  0.00  0.00    +0.003 A 
ATOM     22  C   LIG    1       -0.021  -0.006   0.037  0.00  0.00    +0.000 A 
ENDBRANCH  16  20
ENDBRANCH  15  16
ENDBRANCH  14  15
ENDBRANCH   1  14
TORSDOF 5
