REMARK  Name = ZINC06511241
REMARK                            x       y       z     vdW  Elec       q    Type
REMARK                         _______ _______ _______ _____ _____    ______ ____
ROOT
ATOM      1  N   LIG    1       -0.034   1.520  -1.918  0.00  0.00    -0.281 N 
ATOM      2  C   LIG    1       -0.006   0.223  -2.283  0.00  0.00    +0.264 C 
ATOM      3  O   LIG    1        0.879  -0.186  -3.012  0.00  0.00    -0.268 OA
ENDROOT
BRANCH   2   4
ATOM      4  C   LIG    1       -1.042  -0.697  -1.802  0.00  0.00    +0.102 A 
ATOM      5  C   LIG    1       -1.146  -2.037  -2.115  0.00  0.00    +0.033 A 
ATOM      6  C   LIG    1       -2.265  -2.535  -1.452  0.00  0.00    +0.028 A 
ATOM      7  C   LIG    1       -2.829  -1.495  -0.744  0.00  0.00    +0.047 A 
ATOM      8  N   LIG    1       -2.078  -0.376  -0.955  0.00  0.00    -0.351 N 
ATOM      9  H   LIG    1       -2.247   0.499  -0.573  0.00  0.00    +0.166 HD
BRANCH   7  10
ATOM     10  C   LIG    1       -4.037  -1.580   0.103  0.00  0.00    -0.002 A 
ATOM     11  C   LIG    1       -4.517  -0.443   0.756  0.00  0.00    +0.010 A 
ATOM     12  C   LIG    1       -5.647  -0.528   1.541  0.00  0.00    +0.001 A 
ATOM     13  C   LIG    1       -6.300  -1.739   1.692  0.00  0.00    +0.000 A 
ATOM     14  C   LIG    1       -5.827  -2.871   1.052  0.00  0.00    +0.001 A 
ATOM     15  C   LIG    1       -4.700  -2.799   0.259  0.00  0.00    +0.010 A 
ENDBRANCH   7  10
ENDBRANCH   2   4
BRANCH   1  16
ATOM     16  C   LIG    1       -1.161   2.037  -1.138  0.00  0.00    +0.107 C 
BRANCH  16  17
ATOM     17  C   LIG    1       -2.434   1.981  -1.984  0.00  0.00    +0.000 C 
BRANCH  17  18
ATOM     18  C   LIG    1       -3.612   2.519  -1.168  0.00  0.00    -0.077 C 
BRANCH  18  19
ATOM     19  N   LIG    1       -4.851   2.351  -1.957  0.00  0.00    +0.379 N 
ATOM     20  H   LIG    1       -4.664   2.615  -2.932  0.00  0.00    -0.082 HD
BRANCH  19  22
ATOM     21  C   LIG    1       -6.344   0.720  -3.001  0.00  0.00    -0.017 C 
ATOM     22  C   LIG    1       -5.287   0.940  -1.917  0.00  0.00    -0.082 C 
ENDBRANCH  19  22
BRANCH  19  23
ATOM     23  C   LIG    1       -5.915   3.224  -1.419  0.00  0.00    -0.082 C 
ATOM     24  C   LIG    1       -5.654   4.658  -1.885  0.00  0.00    -0.017 C 
ENDBRANCH  19  23
ENDBRANCH  18  19
ENDBRANCH  17  18
ENDBRANCH  16  17
ENDBRANCH   1  16
BRANCH   1  25
ATOM     25  C   LIG    1        1.063   2.412  -2.301  0.00  0.00    +0.192 C 
BRANCH  25  26
ATOM     26  C   LIG    1        1.853   2.792  -1.075  0.00  0.00    -0.018 A 
ATOM     27  C   LIG    1        1.212   2.938   0.141  0.00  0.00    +0.009 A 
ATOM     28  C   LIG    1        1.935   3.280   1.267  0.00  0.00    +0.046 A 
ATOM     29  C   LIG    1        3.303   3.490   1.175  0.00  0.00    +0.117 A 
ATOM     30  C   LIG    1        3.943   3.349  -0.048  0.00  0.00    +0.046 A 
ATOM     31  C   LIG    1        3.217   3.000  -1.170  0.00  0.00    +0.009 A 
BRANCH  29  32
ATOM     32  O   LIG    1        4.015   3.833   2.280  0.00  0.00    -0.507 OA
ATOM     33  H   LIG    1        4.078   4.787   2.427  0.00  0.00    +0.292 HD
ENDBRANCH  29  32
ENDBRANCH  25  26
BRANCH  25  34
ATOM     34  C   LIG    1        0.499   3.655  -2.941  0.00  0.00    +0.238 C 
ATOM     35  N   LIG    1        1.328   4.625  -3.375  0.00  0.00    -0.311 N 
ATOM     36  H   LIG    1        2.288   4.522  -3.276  0.00  0.00    +0.149 HD
ATOM     37  O   LIG    1       -0.701   3.782  -3.064  0.00  0.00    -0.273 OA
BRANCH  35  38
ATOM     38  C   LIG    1        0.780   5.833  -3.997  0.00  0.00    +0.073 C 
ATOM     39  C   LIG    1        0.538   5.575  -5.486  0.00  0.00    +0.022 C 
ATOM     40  C   LIG    1       -0.034   6.837  -6.135  0.00  0.00    +0.002 C 
ATOM     41  C   LIG    1        0.959   7.990  -5.971  0.00  0.00    +0.000 C 
ATOM     42  C   LIG    1        1.200   8.247  -4.482  0.00  0.00    +0.002 C 
ATOM     43  C   LIG    1        1.773   6.986  -3.833  0.00  0.00    +0.022 C 
ENDBRANCH  35  38
ENDBRANCH  25  34
ENDBRANCH   1  25
TORSDOF 13
