REMARK  Name = ZINC06116554
REMARK                            x       y       z     vdW  Elec       q    Type
REMARK                         _______ _______ _______ _____ _____    ______ ____
ROOT
ATOM      1  C   LIG    1       -0.070   5.347   0.032  0.00  0.00    -0.039 C 
ATOM      2  N   LIG    1        1.177   5.863  -0.561  0.00  0.00    +0.386 N 
ATOM      3  H   LIG    1        1.144   6.889  -0.580  0.00  0.00    -0.085 HD
ATOM      4  H   LIG    1        1.974   5.557   0.009  0.00  0.00    -0.085 HD
ATOM      5  C   LIG    1        1.340   5.357  -1.937  0.00  0.00    -0.081 C 
ATOM      6  C   LIG    1        0.183   5.851  -2.808  0.00  0.00    -0.019 C 
ATOM      7  C   LIG    1       -1.141   5.351  -2.223  0.00  0.00    +0.001 C 
ATOM      8  C   LIG    1       -0.190   5.846   1.473  0.00  0.00    -0.008 C 
ATOM      9  C   LIG    1       -1.483   5.308   2.091  0.00  0.00    -0.001 C 
ATOM     10  C   LIG    1       -2.682   5.799   1.279  0.00  0.00    +0.000 C 
ATOM     11  C   LIG    1       -2.560   5.304  -0.164  0.00  0.00    +0.002 C 
ATOM     12  C   LIG    1       -1.269   5.845  -0.779  0.00  0.00    -0.018 C 
ENDROOT
BRANCH   1  16
ATOM     13  C   LIG    1       -0.011   1.076   0.004  0.00  0.00    +0.000 A 
ATOM     14  C   LIG    1        0.962   1.776   0.692  0.00  0.00    +0.000 A 
ATOM     15  C   LIG    1        0.945   3.158   0.698  0.00  0.00    +0.002 A 
ATOM     16  C   LIG    1       -0.050   3.840   0.023  0.00  0.00    -0.058 A 
ATOM     17  C   LIG    1       -1.026   3.140  -0.661  0.00  0.00    +0.002 A 
ATOM     18  C   LIG    1       -1.007   1.758  -0.671  0.00  0.00    +0.000 A 
ENDBRANCH   1  16
TORSDOF 1
