REMARK  Name = ZINC06718487
REMARK                            x       y       z     vdW  Elec       q    Type
REMARK                         _______ _______ _______ _____ _____    ______ ____
ROOT
ATOM      1  C   LIG    1       -0.018   1.503   0.010  0.00  0.00    +0.066 C 
ATOM      2  C   LIG    1        0.002  -0.004   0.002  0.00  0.00    +0.052 A 
ATOM      3  C   LIG    1        0.005  -0.682  -1.219  0.00  0.00    +0.071 A 
ATOM      4  C   LIG    1        0.025  -2.084  -1.229  0.00  0.00    +0.060 A 
ATOM      5  C   LIG    1        0.024  -2.485  -2.650  0.00  0.00    +0.255 C 
ATOM      6  N   LIG    1        0.005  -1.372  -3.408  0.00  0.00    -0.231 N 
ATOM      7  O   LIG    1        0.038  -3.626  -3.065  0.00  0.00    -0.270 OA
ATOM      8  C   LIG    1        0.041  -2.758   0.004  0.00  0.00    +0.015 A 
ATOM      9  C   LIG    1        0.061  -4.158   0.083  0.00  0.00    +0.039 A 
ATOM     10  C   LIG    1        0.076  -4.766   1.301  0.00  0.00    +0.106 A 
ATOM     11  C   LIG    1        0.071  -4.014   2.475  0.00  0.00    +0.030 A 
ATOM     12  C   LIG    1        0.052  -2.655   2.439  0.00  0.00    +0.030 A 
ATOM     13  C   LIG    1        0.036  -1.988   1.200  0.00  0.00    +0.072 A 
ATOM     14  C   LIG    1       -0.007  -0.269  -2.638  0.00  0.00    +0.256 C 
ATOM     15  O   LIG    1       -0.025   0.876  -3.042  0.00  0.00    -0.269 OA
ATOM     16  N   LIG    1        0.022  -0.653   1.142  0.00  0.00    -0.251 NA
ENDROOT
BRANCH  10  17
ATOM     17  S   LIG    1        0.102  -6.526   1.395  0.00  0.00    +0.061 S 
ATOM     18  O   LIG    1       -0.449  -7.005   0.176  0.00  0.00    -0.153 OA
ATOM     19  O   LIG    1       -0.437  -6.872   2.663  0.00  0.00    -0.153 OA
BRANCH  17  20
ATOM     20  N   LIG    1        1.691  -6.992   1.412  0.00  0.00    -0.172 NA
ATOM     21  C   LIG    1        2.414  -7.266   0.160  0.00  0.00    +0.137 C 
ATOM     22  C   LIG    1        3.729  -6.480   0.179  0.00  0.00    +0.177 C 
ATOM     23  O   LIG    1        4.430  -6.764   1.392  0.00  0.00    -0.377 OA
ATOM     24  C   LIG    1        3.737  -6.363   2.577  0.00  0.00    +0.177 C 
ATOM     25  C   LIG    1        2.423  -7.138   2.680  0.00  0.00    +0.137 C 
ENDBRANCH  17  20
ENDBRANCH  10  17
BRANCH   6  26
ATOM     26  C   LIG    1       -0.001  -1.364  -4.873  0.00  0.00    +0.158 C 
BRANCH  26  27
ATOM     27  C   LIG    1       -1.446  -1.382  -5.377  0.00  0.00    +0.251 C 
BRANCH  27  28
ATOM     28  O   LIG    1       -2.100  -0.172  -4.989  0.00  0.00    -0.463 OA
BRANCH  28  29
ATOM     29  C   LIG    1       -3.383  -0.029  -5.356  0.00  0.00    +0.304 C 
ATOM     30  C   LIG    1       -4.139   1.221  -4.983  0.00  0.00    +0.136 C 
ATOM     31  O   LIG    1       -3.933  -0.901  -5.986  0.00  0.00    -0.251 OA
ENDBRANCH  28  29
ENDBRANCH  27  28
ENDBRANCH  26  27
ENDBRANCH   6  26
TORSDOF 6
