REMARK  Name = ZINC06860381
REMARK                            x       y       z     vdW  Elec       q    Type
REMARK                         _______ _______ _______ _____ _____    ______ ____
ROOT
ATOM      1  C   LIG    1        0.615   7.410   0.044  0.00  0.00    +0.190 A 
ATOM      2  C   LIG    1       -0.763   7.434   0.055  0.00  0.00    +0.055 A 
ATOM      3  C   LIG    1       -1.190   6.102   0.061  0.00  0.00    +0.050 A 
ATOM      4  C   LIG    1       -0.070   5.321   0.053  0.00  0.00    +0.136 A 
ATOM      5  O   LIG    1        1.011   6.120   0.049  0.00  0.00    -0.450 OA
ENDROOT
BRANCH   4   6
ATOM      6  C   LIG    1       -0.049   3.845   0.056  0.00  0.00    +0.018 A 
ATOM      7  C   LIG    1       -1.247   3.127   0.068  0.00  0.00    +0.011 A 
ATOM      8  C   LIG    1       -1.221   1.748   0.066  0.00  0.00    +0.001 A 
ATOM      9  C   LIG    1       -0.011   1.075   0.063  0.00  0.00    +0.012 A 
ATOM     10  C   LIG    1        1.179   1.780   0.050  0.00  0.00    +0.055 A 
ATOM     11  C   LIG    1        1.167   3.160   0.047  0.00  0.00    +0.024 A 
BRANCH  10  12
ATOM     12  C   LIG    1        2.491   1.040   0.041  0.00  0.00    +0.417 C 
ATOM     13  F   LIG    1        3.232   1.388   1.176  0.00  0.00    -0.166 F 
ATOM     14  F   LIG    1        3.212   1.382  -1.109  0.00  0.00    -0.166 F 
ATOM     15  F   LIG    1        2.249  -0.338   0.046  0.00  0.00    -0.166 F 
ENDBRANCH  10  12
ENDBRANCH   4   6
BRANCH   1  18
ATOM     16  N   LIG    1        2.833   8.417   0.023  0.00  0.00    -0.279 N 
ATOM     17  H   LIG    1        3.214   7.527   0.089  0.00  0.00    +0.155 HD
ATOM     18  C   LIG    1        1.495   8.580   0.034  0.00  0.00    +0.284 C 
ATOM     19  O   LIG    1        1.019   9.700   0.036  0.00  0.00    -0.266 OA
BRANCH  16  25
ATOM     20  C   LIG    1        6.985  10.439  -1.660  0.00  0.00    +0.044 C 
ATOM     21  C   LIG    1        5.692  10.539  -0.894  0.00  0.00    -0.049 A 
ATOM     22  C   LIG    1        5.334  11.732  -0.294  0.00  0.00    +0.003 A 
ATOM     23  C   LIG    1        4.148  11.828   0.410  0.00  0.00    +0.002 A 
ATOM     24  C   LIG    1        3.317  10.730   0.517  0.00  0.00    +0.023 A 
ATOM     25  C   LIG    1        3.672   9.530  -0.084  0.00  0.00    +0.034 A 
ATOM     26  C   LIG    1        4.867   9.436  -0.787  0.00  0.00    +0.026 A 
ENDBRANCH  16  25
ENDBRANCH   1  18
TORSDOF 4
