REMARK  Name = ZINC06225091
REMARK                            x       y       z     vdW  Elec       q    Type
REMARK                         _______ _______ _______ _____ _____    ______ ____
ROOT
ATOM      1  S   LIG    1        1.232  -2.441  -0.022  0.00  0.00    +0.155 S 
ATOM      2  O   LIG    1        2.477  -2.827  -0.588  0.00  0.00    -0.132 OA
ATOM      3  O   LIG    1       -0.013  -2.861  -0.562  0.00  0.00    -0.132 OA
ENDROOT
BRANCH   1   8
ATOM      4  C   LIG    1       -0.017   1.378   0.010  0.00  0.00    +0.004 A 
ATOM      5  C   LIG    1        1.171   2.085   0.002  0.00  0.00    +0.033 A 
ATOM      6  C   LIG    1        2.377   1.411  -0.013  0.00  0.00    +0.124 A 
ATOM      7  C   LIG    1        2.396   0.028  -0.020  0.00  0.00    +0.063 A 
ATOM      8  C   LIG    1        1.209  -0.679  -0.012  0.00  0.00    +0.129 A 
ATOM      9  C   LIG    1        0.002  -0.004   0.002  0.00  0.00    +0.030 A 
BRANCH   6  10
ATOM     10  N   LIG    1        3.649   2.168  -0.022  0.00  0.00    +0.006 N 
ATOM     11  O   LIG    1        3.633   3.377  -0.016  0.00  0.00    -0.130 OA
BRANCH  10  12
ATOM     12  O   LIG    1        4.704   1.578  -0.035  0.00  0.00    -0.396 OA
ATOM     13  H   LIG    1        4.717   0.641  -0.040  0.00  0.00    +0.329 HD
ENDBRANCH  10  12
ENDBRANCH   6  10
ENDBRANCH   1   8
BRANCH   1  14
ATOM     14  N   LIG    1        1.256  -2.939   1.557  0.00  0.00    +0.061 NA
ATOM     15  C   LIG    1        1.276  -4.212   1.839  0.00  0.00    +0.403 C 
BRANCH  15  16
ATOM     16  N   LIG    1        1.295  -4.626   3.150  0.00  0.00    -0.288 N 
ATOM     17  H   LIG    1        1.310  -5.573   3.359  0.00  0.00    +0.255 HD
ATOM     18  H   LIG    1        1.294  -3.971   3.865  0.00  0.00    +0.255 HD
ENDBRANCH  15  16
BRANCH  15  19
ATOM     19  N   LIG    1        1.278  -5.140   0.825  0.00  0.00    -0.288 N 
ATOM     20  H   LIG    1        1.293  -6.087   1.034  0.00  0.00    +0.255 HD
ATOM     21  H   LIG    1        1.264  -4.848  -0.100  0.00  0.00    +0.255 HD
ENDBRANCH  15  19
ENDBRANCH   1  14
TORSDOF 6
