REMARK  Name = ZINC06906033
REMARK                            x       y       z     vdW  Elec       q    Type
REMARK                         _______ _______ _______ _____ _____    ______ ____
ROOT
ATOM      1  C   LIG    1        1.373  -0.311  -3.368  0.00  0.00    +0.241 A 
ATOM      2  N   LIG    1        0.864   0.011  -4.553  0.00  0.00    -0.180 NA
ATOM      3  C   LIG    1       -0.167   0.847  -4.628  0.00  0.00    +0.224 A 
ATOM      4  N   LIG    1       -0.692   1.357  -3.519  0.00  0.00    -0.181 NA
ATOM      5  C   LIG    1       -0.180   1.039  -2.334  0.00  0.00    +0.224 A 
ATOM      6  N   LIG    1        0.851   0.203  -2.258  0.00  0.00    -0.180 NA
ENDROOT
BRANCH   3   7
ATOM      7  N   LIG    1       -0.696   1.181  -5.859  0.00  0.00    -0.299 N 
ATOM      8  C   LIG    1       -2.133   0.884  -5.913  0.00  0.00    +0.108 C 
ATOM      9  C   LIG    1       -2.712   1.399  -7.232  0.00  0.00    +0.019 C 
ATOM     10  C   LIG    1       -1.988   0.725  -8.400  0.00  0.00    +0.003 C 
ATOM     11  C   LIG    1       -0.488   1.009  -8.293  0.00  0.00    +0.019 C 
ATOM     12  C   LIG    1        0.028   0.505  -6.944  0.00  0.00    +0.108 C 
ENDBRANCH   3   7
BRANCH   5  13
ATOM     13  N   LIG    1       -0.723   1.572  -1.182  0.00  0.00    -0.299 N 
ATOM     14  C   LIG    1       -0.013   1.086   0.008  0.00  0.00    +0.108 C 
ATOM     15  C   LIG    1       -0.729   1.579   1.267  0.00  0.00    +0.019 C 
ATOM     16  C   LIG    1       -0.764   3.110   1.262  0.00  0.00    +0.003 C 
ATOM     17  C   LIG    1       -1.466   3.591  -0.011  0.00  0.00    +0.019 C 
ATOM     18  C   LIG    1       -0.729   3.040  -1.234  0.00  0.00    +0.108 C 
ENDBRANCH   5  13
BRANCH   1  19
ATOM     19  N   LIG    1        2.444  -1.179  -3.289  0.00  0.00    -0.205 N 
ATOM     20  H   LIG    1        2.816  -1.413  -2.424  0.00  0.00    +0.177 HD
BRANCH  19  22
ATOM     21  C   LIG    1        4.001  -2.536  -4.384  0.00  0.00    +0.138 C 
ATOM     22  N   LIG    1        2.994  -1.720  -4.458  0.00  0.00    -0.188 NA
BRANCH  21  25
ATOM     23  C   LIG    1        6.204  -4.517  -6.693  0.00  0.00    +0.166 A 
ATOM     24  C   LIG    1        5.664  -3.984  -5.537  0.00  0.00    +0.059 A 
ATOM     25  C   LIG    1        4.580  -3.106  -5.614  0.00  0.00    +0.002 A 
ATOM     26  C   LIG    1        4.042  -2.773  -6.860  0.00  0.00    +0.059 A 
ATOM     27  C   LIG    1        4.591  -3.306  -8.013  0.00  0.00    +0.166 A 
ATOM     28  C   LIG    1        5.670  -4.181  -7.932  0.00  0.00    +0.201 A 
BRANCH  23  30
ATOM     29  C   LIG    1        7.758  -5.675  -5.313  0.00  0.00    +0.277 C 
ATOM     30  O   LIG    1        7.259  -5.372  -6.618  0.00  0.00    -0.491 OA
ENDBRANCH  23  30
BRANCH  27  31
ATOM     31  O   LIG    1        4.071  -2.978  -9.227  0.00  0.00    -0.491 OA
ATOM     32  C   LIG    1        2.964  -2.075  -9.236  0.00  0.00    +0.277 C 
ENDBRANCH  27  31
BRANCH  28  33
ATOM     33  O   LIG    1        6.203  -4.707  -9.068  0.00  0.00    -0.501 OA
ATOM     34  H   LIG    1        5.800  -5.542  -9.341  0.00  0.00    +0.292 HD
ENDBRANCH  28  33
ENDBRANCH  21  25
ENDBRANCH  19  22
ENDBRANCH   1  19
TORSDOF 8
