REMARK  Name = ZINC06315584
REMARK                            x       y       z     vdW  Elec       q    Type
REMARK                         _______ _______ _______ _____ _____    ______ ____
ROOT
ATOM      1  N   LIG    1       -1.175  -0.728   0.010  0.00  0.00    -0.299 N 
ATOM      2  H   LIG    1       -1.897  -0.255  -0.433  0.00  0.00    +0.154 HD
ENDROOT
BRANCH   1   3
ATOM      3  C   LIG    1       -0.234  -0.027   0.740  0.00  0.00    +0.137 A 
ATOM      4  C   LIG    1       -0.238   1.381   0.758  0.00  0.00    +0.078 A 
ATOM      5  C   LIG    1       -1.035   2.380   0.157  0.00  0.00    +0.147 A 
ATOM      6  N   LIG    1       -0.584   3.545   0.526  0.00  0.00    -0.180 NA
ATOM      7  N   LIG    1        0.522   3.378   1.370  0.00  0.00    -0.260 N 
ATOM      8  H   LIG    1        1.055   4.112   1.789  0.00  0.00    +0.191 HD
ATOM      9  C   LIG    1        0.745   2.042   1.521  0.00  0.00    +0.161 A 
ATOM     10  N   LIG    1        1.635   1.312   2.191  0.00  0.00    -0.216 NA
ATOM     11  C   LIG    1        1.599  -0.002   2.143  0.00  0.00    +0.225 A 
ATOM     12  N   LIG    1        0.696  -0.665   1.442  0.00  0.00    -0.220 NA
ENDBRANCH   1   3
BRANCH   1  18
ATOM     13  C   LIG    1        0.157  -2.739  -0.105  0.00  0.00    +0.027 A 
ATOM     14  C   LIG    1        0.244  -4.114  -0.199  0.00  0.00    +0.048 A 
ATOM     15  C   LIG    1       -0.911  -4.878  -0.291  0.00  0.00    +0.130 A 
ATOM     16  C   LIG    1       -2.153  -4.261  -0.283  0.00  0.00    +0.048 A 
ATOM     17  C   LIG    1       -2.242  -2.886  -0.183  0.00  0.00    +0.027 A 
ATOM     18  C   LIG    1       -1.086  -2.122  -0.091  0.00  0.00    +0.033 A 
BRANCH  15  19
ATOM     19  O   LIG    1       -0.825  -6.231  -0.390  0.00  0.00    -0.406 OA
BRANCH  19  20
ATOM     20  C   LIG    1        0.486  -6.799  -0.392  0.00  0.00    +0.575 C 
ATOM     21  F   LIG    1        1.210  -6.297  -1.479  0.00  0.00    -0.133 F 
ATOM     22  F   LIG    1        0.392  -8.191  -0.498  0.00  0.00    -0.133 F 
ATOM     23  F   LIG    1        1.141  -6.466   0.799  0.00  0.00    -0.133 F 
ENDBRANCH  19  20
ENDBRANCH  15  19
ENDBRANCH   1  18
TORSDOF 4
