REMARK  Name = ZINC06845860
REMARK                            x       y       z     vdW  Elec       q    Type
REMARK                         _______ _______ _______ _____ _____    ______ ____
ROOT
ATOM      1  C   LIG    1       -0.943  -0.764   1.921  0.00  0.00    +0.027 C 
ENDROOT
BRANCH   1   3
ATOM      2  C   LIG    1       -0.658   1.577   1.289  0.00  0.00    -0.031 C 
ATOM      3  C   LIG    1       -1.196   0.709   2.110  0.00  0.00    -0.031 C 
BRANCH   2   4
ATOM      4  C   LIG    1        0.070   1.099   0.059  0.00  0.00    +0.027 C 
BRANCH   4   5
ATOM      5  C   LIG    1       -0.486   1.814  -1.173  0.00  0.00    +0.004 C 
BRANCH   5   6
ATOM      6  C   LIG    1        0.254   1.329  -2.422  0.00  0.00    +0.000 C 
BRANCH   6   7
ATOM      7  C   LIG    1       -0.303   2.043  -3.655  0.00  0.00    +0.000 C 
BRANCH   7   8
ATOM      8  C   LIG    1        0.436   1.558  -4.903  0.00  0.00    -0.000 C 
BRANCH   8   9
ATOM      9  C   LIG    1       -0.120   2.273  -6.136  0.00  0.00    -0.000 C 
BRANCH   9  11
ATOM     10  C   LIG    1        0.062   2.502  -8.617  0.00  0.00    +0.004 C 
ATOM     11  C   LIG    1        0.620   1.788  -7.384  0.00  0.00    -0.003 C 
ENDBRANCH   9  11
ENDBRANCH   8   9
ENDBRANCH   7   8
ENDBRANCH   6   7
ENDBRANCH   5   6
ENDBRANCH   4   5
ENDBRANCH   2   4
ENDBRANCH   1   3
BRANCH   1  12
ATOM     12  C   LIG    1       -0.411  -1.362   3.225  0.00  0.00    +0.004 C 
BRANCH  12  13
ATOM     13  C   LIG    1       -0.155  -2.858   3.033  0.00  0.00    +0.000 C 
BRANCH  13  14
ATOM     14  C   LIG    1        0.377  -3.456   4.337  0.00  0.00    +0.000 C 
BRANCH  14  15
ATOM     15  C   LIG    1        0.634  -4.952   4.145  0.00  0.00    +0.001 C 
BRANCH  15  16
ATOM     16  C   LIG    1        1.166  -5.550   5.449  0.00  0.00    +0.011 C 
BRANCH  16  17
ATOM     17  C   LIG    1        1.422  -7.046   5.257  0.00  0.00    +0.120 C 
BRANCH  17  18
ATOM     18  C   LIG    1        1.946  -7.634   6.542  0.00  0.00    +0.305 C 
ATOM     19  O   LIG    1        2.098  -6.930   7.512  0.00  0.00    -0.251 OA
BRANCH  18  20
ATOM     20  O   LIG    1        2.243  -8.942   6.609  0.00  0.00    -0.481 OA
ATOM     21  H   LIG    1        2.125  -9.488   5.857  0.00  0.00    +0.295 HD
ENDBRANCH  18  20
ENDBRANCH  17  18
ENDBRANCH  16  17
ENDBRANCH  15  16
ENDBRANCH  14  15
ENDBRANCH  13  14
ENDBRANCH  12  13
ENDBRANCH   1  12
TORSDOF 16
