REMARK  Name = ZINC06718813
REMARK                            x       y       z     vdW  Elec       q    Type
REMARK                         _______ _______ _______ _____ _____    ______ ____
ROOT
ATOM      1  C   LIG    1        2.241   1.687   0.357  0.00  0.00    +0.035 A 
ATOM      2  C   LIG    1        1.163   2.554   0.490  0.00  0.00    +0.024 A 
ATOM      3  C   LIG    1       -0.118   2.054   0.583  0.00  0.00    +0.010 A 
ATOM      4  C   LIG    1       -0.333   0.677   0.544  0.00  0.00    -0.017 A 
ATOM      5  C   LIG    1        0.751  -0.192   0.410  0.00  0.00    +0.010 A 
ATOM      6  C   LIG    1        2.030   0.313   0.317  0.00  0.00    +0.024 A 
ENDROOT
BRANCH   4   7
ATOM      7  C   LIG    1       -1.708   0.137   0.645  0.00  0.00    -0.005 A 
ATOM      8  C   LIG    1       -2.035  -0.765   1.648  0.00  0.00    +0.009 A 
ATOM      9  C   LIG    1       -3.323  -1.268   1.746  0.00  0.00    +0.003 A 
ATOM     10  C   LIG    1       -4.297  -0.891   0.847  0.00  0.00    +0.028 A 
ATOM     11  C   LIG    1       -3.997   0.009  -0.173  0.00  0.00    +0.068 A 
ATOM     12  N   LIG    1       -4.729   0.561  -1.193  0.00  0.00    -0.275 N 
ATOM     13  H   LIG    1       -5.696   0.380  -1.376  0.00  0.00    +0.189 HD
ATOM     14  N   LIG    1       -3.910   1.417  -1.935  0.00  0.00    -0.158 NA
ATOM     15  C   LIG    1       -2.703   1.428  -1.432  0.00  0.00    +0.146 A 
ATOM     16  C   LIG    1       -2.695   0.529  -0.280  0.00  0.00    +0.049 A 
BRANCH  15  17
ATOM     17  N   LIG    1       -1.617   2.167  -1.911  0.00  0.00    -0.341 N 
ATOM     18  H   LIG    1       -1.746   2.815  -2.621  0.00  0.00    +0.144 HD
ATOM     19  H   LIG    1       -0.734   2.031  -1.533  0.00  0.00    +0.144 HD
ENDBRANCH  15  17
ENDBRANCH   4   7
BRANCH   1  23
ATOM     20  N   LIG    1        5.734   1.996  -0.508  0.00  0.00    -0.267 N 
ATOM     21  H   LIG    1        5.984   2.788  -0.006  0.00  0.00    +0.156 HD
ATOM     22  C   LIG    1        4.455   1.571  -0.504  0.00  0.00    +0.308 C 
ATOM     23  N   LIG    1        3.539   2.196   0.263  0.00  0.00    -0.269 N 
ATOM     24  H   LIG    1        3.782   2.999   0.750  0.00  0.00    +0.156 HD
ATOM     25  O   LIG    1        4.127   0.624  -1.192  0.00  0.00    -0.252 OA
BRANCH  20  32
ATOM     26  C   LIG    1        6.949  -0.671  -4.457  0.00  0.00    +0.044 C 
ATOM     27  C   LIG    1        7.319  -0.007  -3.155  0.00  0.00    -0.049 A 
ATOM     28  C   LIG    1        8.615  -0.090  -2.682  0.00  0.00    +0.006 A 
ATOM     29  C   LIG    1        8.959   0.517  -1.488  0.00  0.00    +0.040 A 
ATOM     30  C   LIG    1        8.006   1.210  -0.764  0.00  0.00    +0.145 A 
ATOM     31  F   LIG    1        8.342   1.804   0.402  0.00  0.00    -0.204 F 
ATOM     32  C   LIG    1        6.702   1.296  -1.239  0.00  0.00    +0.070 A 
ATOM     33  C   LIG    1        6.361   0.680  -2.435  0.00  0.00    +0.029 A 
ENDBRANCH  20  32
ENDBRANCH   1  23
TORSDOF 4
