REMARK  Name = ZINC06722241
REMARK                            x       y       z     vdW  Elec       q    Type
REMARK                         _______ _______ _______ _____ _____    ______ ____
ROOT
ATOM      1  C   LIG    1       -4.412   0.977  -2.321  0.00  0.00    +0.163 C 
ENDROOT
BRANCH   1   3
ATOM      2  C   LIG    1       -2.154   1.411  -1.516  0.00  0.00    +0.217 C 
ATOM      3  N   LIG    1       -3.087   1.585  -2.472  0.00  0.00    -0.303 N 
ATOM      4  H   LIG    1       -2.883   2.113  -3.259  0.00  0.00    +0.149 HD
ATOM      5  O   LIG    1       -2.409   0.751  -0.531  0.00  0.00    -0.275 OA
BRANCH   2  10
ATOM      6  C   LIG    1       -1.407   4.279   1.980  0.00  0.00    +0.007 C 
ATOM      7  C   LIG    1       -0.741   3.744   0.711  0.00  0.00    -0.014 C 
ATOM      8  C   LIG    1       -0.595   2.224   0.814  0.00  0.00    +0.004 C 
ATOM      9  C   LIG    1        0.071   1.689  -0.456  0.00  0.00    +0.013 C 
ATOM     10  C   LIG    1       -0.791   2.037  -1.670  0.00  0.00    +0.075 C 
ATOM     11  C   LIG    1       -0.937   3.557  -1.773  0.00  0.00    +0.013 C 
ATOM     12  C   LIG    1       -1.603   4.092  -0.504  0.00  0.00    +0.004 C 
ENDBRANCH   2  10
ENDBRANCH   1   3
BRANCH   1  13
ATOM     13  C   LIG    1       -5.291   1.884  -1.500  0.00  0.00    +0.238 C 
ATOM     14  N   LIG    1       -6.563   1.527  -1.231  0.00  0.00    -0.284 N 
ATOM     15  H   LIG    1       -6.936   0.725  -1.628  0.00  0.00    +0.155 HD
ATOM     16  O   LIG    1       -4.855   2.936  -1.082  0.00  0.00    -0.273 OA
BRANCH  14  17
ATOM     17  C   LIG    1       -7.343   2.312  -0.381  0.00  0.00    +0.036 A 
ATOM     18  C   LIG    1       -6.766   3.004   0.683  0.00  0.00    +0.043 A 
ATOM     19  C   LIG    1       -7.571   3.773   1.498  0.00  0.00    +0.112 A 
ATOM     20  N   LIG    1       -8.871   3.850   1.285  0.00  0.00    -0.263 NA
ATOM     21  C   LIG    1       -9.455   3.207   0.292  0.00  0.00    +0.112 A 
ATOM     22  C   LIG    1       -8.719   2.421  -0.571  0.00  0.00    +0.043 A 
ENDBRANCH  14  17
ENDBRANCH   1  13
BRANCH   1  23
ATOM     23  C   LIG    1       -5.038   0.771  -3.702  0.00  0.00    +0.069 C 
BRANCH  23  24
ATOM     24  C   LIG    1       -4.225  -0.231  -4.479  0.00  0.00    -0.020 A 
ATOM     25  C   LIG    1       -3.251   0.043  -5.361  0.00  0.00    +0.087 A 
ATOM     26  N   LIG    1       -2.737  -1.121  -5.866  0.00  0.00    -0.360 N 
ATOM     27  C   LIG    1       -3.391  -2.200  -5.312  0.00  0.00    +0.047 A 
ATOM     28  C   LIG    1       -3.272  -3.576  -5.472  0.00  0.00    +0.026 A 
ATOM     29  C   LIG    1       -4.093  -4.421  -4.757  0.00  0.00    +0.002 A 
ATOM     30  C   LIG    1       -5.038  -3.913  -3.878  0.00  0.00    +0.001 A 
ATOM     31  C   LIG    1       -5.172  -2.564  -3.705  0.00  0.00    +0.010 A 
ATOM     32  H   LIG    1       -2.022  -1.178  -6.519  0.00  0.00    +0.165 HD
ATOM     33  C   LIG    1       -4.351  -1.689  -4.420  0.00  0.00    +0.003 A 
ENDBRANCH  23  24
ENDBRANCH   1  23
TORSDOF 6
