REMARK  Name = ZINC06675630
REMARK                            x       y       z     vdW  Elec       q    Type
REMARK                         _______ _______ _______ _____ _____    ______ ____
ROOT
ATOM      1  C   LIG    1        2.859  -0.454  -2.507  0.00  0.00    +0.221 A 
ATOM      2  N   LIG    1        2.510  -0.209  -3.736  0.00  0.00    -0.111 NA
ATOM      3  N   LIG    1        3.336  -0.779  -4.541  0.00  0.00    -0.101 NA
ATOM      4  C   LIG    1        4.249  -1.414  -3.846  0.00  0.00    +0.274 A 
ATOM      5  O   LIG    1        3.969  -1.217  -2.544  0.00  0.00    -0.415 OA
ENDROOT
BRANCH   1   9
ATOM      6  C   LIG    1       -0.019   1.526   0.010  0.00  0.00    +0.000 C 
ATOM      7  C   LIG    1        1.417   2.055  -0.000  0.00  0.00    +0.001 C 
ATOM      8  C   LIG    1        2.133   1.562  -1.259  0.00  0.00    +0.013 C 
ATOM      9  C   LIG    1        2.154   0.032  -1.268  0.00  0.00    +0.077 C 
ATOM     10  C   LIG    1        0.718  -0.497  -1.257  0.00  0.00    +0.013 C 
ATOM     11  C   LIG    1        0.002  -0.004   0.002  0.00  0.00    +0.001 C 
ENDBRANCH   1   9
BRANCH   4  12
ATOM     12  S   LIG    1        5.596  -2.347  -4.497  0.00  0.00    -0.083 S 
ATOM     13  H   LIG    1        5.551  -2.321  -5.856  0.00  0.00    +0.112 HD
ENDBRANCH   4  12
TORSDOF 2
