REMARK  Name = ZINC07999025
REMARK                            x       y       z     vdW  Elec       q    Type
REMARK                         _______ _______ _______ _____ _____    ______ ____
ROOT
ATOM      1  C   LIG    1        4.962  -2.721   0.153  0.00  0.00    +0.195 C 
ATOM      2  C   LIG    1        5.075  -3.854   1.172  0.00  0.00    +0.072 C 
ATOM      3  O   LIG    1        6.125  -1.935  -0.127  0.00  0.00    -0.475 OA
ATOM      4  C   LIG    1        7.341  -2.538   0.012  0.00  0.00    +0.131 A 
ATOM      5  C   LIG    1        8.420  -1.855   0.548  0.00  0.00    +0.046 A 
ATOM      6  C   LIG    1        9.652  -2.475   0.641  0.00  0.00    +0.004 A 
ATOM      7  C   LIG    1        9.823  -3.778   0.203  0.00  0.00    +0.001 A 
ATOM      8  C   LIG    1        8.757  -4.477  -0.329  0.00  0.00    +0.013 A 
ATOM      9  C   LIG    1        7.515  -3.862  -0.422  0.00  0.00    +0.042 A 
ATOM     10  C   LIG    1        6.335  -4.571  -0.974  0.00  0.00    +0.098 C 
ATOM     11  N   LIG    1        6.422  -5.442  -1.928  0.00  0.00    -0.091 NA
ATOM     12  C   LIG    1        5.008  -4.187  -0.322  0.00  0.00    +0.099 C 
ENDROOT
BRANCH   1  15
ATOM     13  N   LIG    1        3.622  -0.651  -0.037  0.00  0.00    -0.282 N 
ATOM     14  H   LIG    1        4.452  -0.155  -0.111  0.00  0.00    +0.155 HD
ATOM     15  C   LIG    1        3.645  -1.995   0.057  0.00  0.00    +0.262 C 
ATOM     16  O   LIG    1        2.606  -2.620   0.064  0.00  0.00    -0.271 OA
BRANCH  13  20
ATOM     17  C   LIG    1       -0.018   1.377  -0.014  0.00  0.00    +0.000 A 
ATOM     18  C   LIG    1        1.092   1.944   0.587  0.00  0.00    +0.002 A 
ATOM     19  C   LIG    1        2.300   1.274   0.581  0.00  0.00    +0.023 A 
ATOM     20  C   LIG    1        2.399   0.030  -0.029  0.00  0.00    +0.034 A 
ATOM     21  C   LIG    1        1.283  -0.536  -0.631  0.00  0.00    +0.023 A 
ATOM     22  C   LIG    1        0.078   0.139  -0.622  0.00  0.00    +0.002 A 
ENDBRANCH  13  20
ENDBRANCH   1  15
BRANCH  11  23
ATOM     23  O   LIG    1        5.255  -6.083  -2.410  0.00  0.00    -0.409 OA
ATOM     24  H   LIG    1        5.420  -6.716  -3.122  0.00  0.00    +0.328 HD
ENDBRANCH  11  23
TORSDOF 3
