REMARK  Name = ZINC06116353
REMARK                            x       y       z     vdW  Elec       q    Type
REMARK                         _______ _______ _______ _____ _____    ______ ____
ROOT
ATOM      1  C   LIG    1        3.711  -0.707  -0.038  0.00  0.00    -0.039 C 
ATOM      2  N   LIG    1        3.561  -2.007   0.644  0.00  0.00    +0.386 N 
ATOM      3  H   LIG    1        2.873  -2.576   0.138  0.00  0.00    -0.085 HD
ATOM      4  H   LIG    1        4.466  -2.491   0.652  0.00  0.00    -0.085 HD
ATOM      5  C   LIG    1        3.103  -1.810   2.032  0.00  0.00    -0.081 C 
ATOM      6  C   LIG    1        4.144  -1.002   2.811  0.00  0.00    -0.019 C 
ATOM      7  C   LIG    1        4.342   0.356   2.131  0.00  0.00    +0.001 C 
ATOM      8  C   LIG    1        4.141  -0.949  -1.486  0.00  0.00    -0.008 C 
ATOM      9  C   LIG    1        5.476  -1.691  -1.507  0.00  0.00    -0.001 C 
ATOM     10  C   LIG    1        6.538  -0.852  -0.793  0.00  0.00    +0.000 C 
ATOM     11  C   LIG    1        6.109  -0.613   0.656  0.00  0.00    +0.002 C 
ATOM     12  C   LIG    1        4.773   0.131   0.678  0.00  0.00    -0.018 C 
ENDROOT
BRANCH   1  16
ATOM     13  C   LIG    1       -0.017   1.378   0.010  0.00  0.00    +0.000 A 
ATOM     14  C   LIG    1        1.171   2.086   0.002  0.00  0.00    +0.000 A 
ATOM     15  C   LIG    1        2.377   1.411  -0.014  0.00  0.00    +0.002 A 
ATOM     16  C   LIG    1        2.396   0.029  -0.021  0.00  0.00    -0.058 A 
ATOM     17  C   LIG    1        1.208  -0.679  -0.014  0.00  0.00    +0.002 A 
ATOM     18  C   LIG    1        0.002  -0.004   0.002  0.00  0.00    +0.000 A 
ENDBRANCH   1  16
TORSDOF 1
