REMARK  Name = ZINC07999092
REMARK                            x       y       z     vdW  Elec       q    Type
REMARK                         _______ _______ _______ _____ _____    ______ ____
ROOT
ATOM      1  C   LIG    1        1.346  -2.224  -1.520  0.00  0.00    +0.145 C 
ATOM      2  C   LIG    1        2.193  -2.249  -2.767  0.00  0.00    +0.017 A 
ATOM      3  C   LIG    1        2.312  -1.091  -3.510  0.00  0.00    +0.027 A 
ATOM      4  C   LIG    1        3.084  -1.079  -4.673  0.00  0.00    +0.052 A 
ATOM      5  C   LIG    1        3.736  -2.246  -5.082  0.00  0.00    +0.022 A 
ATOM      6  C   LIG    1        3.614  -3.395  -4.336  0.00  0.00    +0.047 A 
ATOM      7  C   LIG    1        2.844  -3.404  -3.174  0.00  0.00    +0.126 A 
ATOM      8  O   LIG    1        2.762  -4.558  -2.464  0.00  0.00    -0.483 OA
ATOM      9  C   LIG    1        1.708  -4.681  -1.509  0.00  0.00    +0.133 C 
ATOM     10  C   LIG    1        0.367  -4.814  -2.235  0.00  0.00    +0.058 C 
ATOM     11  C   LIG    1        1.946  -5.914  -0.635  0.00  0.00    +0.058 C 
ATOM     12  C   LIG    1        1.698  -3.422  -0.634  0.00  0.00    +0.181 C 
ENDROOT
BRANCH   1  13
ATOM     13  N   LIG    1       -0.070  -2.290  -1.890  0.00  0.00    -0.174 NA
ATOM     14  C   LIG    1       -0.452  -2.488  -3.290  0.00  0.00    +0.132 C 
BRANCH  13  15
ATOM     15  S   LIG    1       -1.238  -2.142  -0.725  0.00  0.00    +0.032 S 
ATOM     16  O   LIG    1       -0.625  -1.384   0.309  0.00  0.00    -0.158 OA
ATOM     17  O   LIG    1       -2.375  -1.641  -1.414  0.00  0.00    -0.158 OA
BRANCH  15  19
ATOM     18  C   LIG    1       -2.623  -3.821   0.931  0.00  0.00    +0.029 C 
ATOM     19  C   LIG    1       -1.548  -3.837  -0.158  0.00  0.00    +0.182 C 
ENDBRANCH  15  19
ENDBRANCH  13  15
ENDBRANCH   1  13
BRANCH   4  20
ATOM     20  C   LIG    1        3.208   0.122  -5.442  0.00  0.00    +0.099 C 
ATOM     21  N   LIG    1        3.305   1.075  -6.053  0.00  0.00    -0.191 NA
ENDBRANCH   4  20
BRANCH  12  22
ATOM     22  O   LIG    1        2.989  -3.229  -0.053  0.00  0.00    -0.386 OA
ATOM     23  H   LIG    1        3.274  -3.953   0.521  0.00  0.00    +0.210 HD
ENDBRANCH  12  22
TORSDOF 5
