REMARK  Name = ZINC08399508
REMARK                            x       y       z     vdW  Elec       q    Type
REMARK                         _______ _______ _______ _____ _____    ______ ____
ROOT
ATOM      1  C   LIG    1       -8.625  -9.960  -0.191  0.00  0.00    +0.001 C 
ENDROOT
BRANCH   1   2
ATOM      2  C   LIG    1       -7.200  -9.409  -0.266  0.00  0.00    +0.009 C 
BRANCH   2   3
ATOM      3  C   LIG    1       -7.249  -7.890  -0.442  0.00  0.00    +0.097 C 
BRANCH   3   6
ATOM      4  N   LIG    1       -5.642  -6.024  -0.671  0.00  0.00    -0.207 N 
ATOM      5  H   LIG    1       -6.399  -5.421  -0.735  0.00  0.00    +0.177 HD
ATOM      6  C   LIG    1       -5.845  -7.347  -0.516  0.00  0.00    +0.232 C 
ATOM      7  O   LIG    1       -4.898  -8.101  -0.436  0.00  0.00    -0.274 OA
BRANCH   4   9
ATOM      8  C   LIG    1       -4.141  -4.245  -0.890  0.00  0.00    +0.140 C 
ATOM      9  N   LIG    1       -4.337  -5.519  -0.741  0.00  0.00    -0.188 NA
BRANCH   8  18
ATOM     10  C   LIG    1       -1.679  -4.589  -0.994  0.00  0.00    +0.061 A 
ATOM     11  C   LIG    1       -0.393  -4.087  -1.063  0.00  0.00    +0.167 A 
ATOM     12  C   LIG    1       -0.184  -2.708  -1.100  0.00  0.00    +0.168 A 
ATOM     13  O   LIG    1        1.159  -2.473  -1.166  0.00  0.00    -0.453 OA
ATOM     14  C   LIG    1        1.785  -3.703  -0.756  0.00  0.00    +0.466 C 
ATOM     15  C   LIG    1       -1.266  -1.840  -1.069  0.00  0.00    +0.082 A 
ATOM     16  C   LIG    1       -2.551  -2.334  -1.001  0.00  0.00    +0.134 A 
ATOM     17  O   LIG    1        0.820  -4.712  -1.105  0.00  0.00    -0.453 OA
ATOM     18  C   LIG    1       -2.768  -3.714  -0.963  0.00  0.00    +0.028 A 
BRANCH  16  19
ATOM     19  N   LIG    1       -3.702  -1.403  -0.968  0.00  0.00    +0.007 N 
ATOM     20  O   LIG    1       -3.513  -0.212  -0.885  0.00  0.00    -0.130 OA
BRANCH  19  21
ATOM     21  O   LIG    1       -4.830  -1.834  -1.023  0.00  0.00    -0.396 OA
ATOM     22  H   LIG    1       -4.976  -2.757  -1.088  0.00  0.00    +0.329 HD
ENDBRANCH  19  21
ENDBRANCH  16  19
ENDBRANCH   8  18
ENDBRANCH   4   9
ENDBRANCH   3   6
ENDBRANCH   2   3
ENDBRANCH   1   2
BRANCH   1  23
ATOM     23  C   LIG    1       -8.576 -11.480  -0.015  0.00  0.00    +0.009 C 
BRANCH  23  24
ATOM     24  C   LIG    1      -10.001 -12.031   0.060  0.00  0.00    +0.097 C 
BRANCH  24  25
ATOM     25  C   LIG    1       -9.952 -13.527   0.234  0.00  0.00    +0.232 C 
ATOM     26  N   LIG    1      -11.097 -14.232   0.325  0.00  0.00    -0.207 N 
ATOM     27  H   LIG    1      -11.953 -13.777   0.279  0.00  0.00    +0.177 HD
ATOM     28  O   LIG    1       -8.883 -14.097   0.291  0.00  0.00    -0.274 OA
BRANCH  26  29
ATOM     29  N   LIG    1      -11.052 -15.623   0.485  0.00  0.00    -0.188 NA
ATOM     30  C   LIG    1      -12.155 -16.303   0.573  0.00  0.00    +0.140 C 
BRANCH  30  31
ATOM     31  C   LIG    1      -12.107 -17.766   0.743  0.00  0.00    +0.028 A 
ATOM     32  C   LIG    1      -13.287 -18.514   0.707  0.00  0.00    +0.134 A 
ATOM     33  C   LIG    1      -13.240 -19.883   0.866  0.00  0.00    +0.082 A 
ATOM     34  C   LIG    1      -12.024 -20.522   1.061  0.00  0.00    +0.168 A 
ATOM     35  C   LIG    1      -10.842 -19.782   1.097  0.00  0.00    +0.167 A 
ATOM     36  O   LIG    1       -9.798 -20.637   1.300  0.00  0.00    -0.453 OA
ATOM     37  C   LIG    1      -10.388 -21.854   1.795  0.00  0.00    +0.466 C 
ATOM     38  O   LIG    1      -11.717 -21.840   1.240  0.00  0.00    -0.453 OA
ATOM     39  C   LIG    1      -10.882 -18.410   0.933  0.00  0.00    +0.061 A 
BRANCH  32  40
ATOM     40  N   LIG    1      -14.587 -17.837   0.499  0.00  0.00    +0.007 N 
ATOM     41  O   LIG    1      -15.593 -18.492   0.355  0.00  0.00    -0.130 OA
BRANCH  40  42
ATOM     42  O   LIG    1      -14.642 -16.630   0.474  0.00  0.00    -0.396 OA
ATOM     43  H   LIG    1      -13.862 -16.123   0.586  0.00  0.00    +0.329 HD
ENDBRANCH  40  42
ENDBRANCH  32  40
ENDBRANCH  30  31
ENDBRANCH  26  29
ENDBRANCH  24  25
ENDBRANCH  23  24
ENDBRANCH   1  23
TORSDOF 14
