REMARK  Name = ZINC06716957
REMARK                            x       y       z     vdW  Elec       q    Type
REMARK                         _______ _______ _______ _____ _____    ______ ____
ROOT
ATOM      1  C   LIG    1        4.880  -3.967   0.155  0.00  0.00    +0.045 C 
ATOM      2  C   LIG    1        3.575  -4.722   0.167  0.00  0.00    -0.029 A 
ATOM      3  C   LIG    1        3.579  -6.104   0.196  0.00  0.00    +0.006 A 
ATOM      4  C   LIG    1        2.389  -6.802   0.202  0.00  0.00    +0.013 A 
ATOM      5  C   LIG    1        1.175  -6.113   0.183  0.00  0.00    +0.039 A 
ATOM      6  C   LIG    1        1.171  -4.718   0.159  0.00  0.00    +0.036 A 
ATOM      7  C   LIG    1        2.372  -4.026   0.153  0.00  0.00    +0.037 A 
ENDROOT
BRANCH   5   8
ATOM      8  C   LIG    1       -0.101  -6.858   0.189  0.00  0.00    +0.248 C 
ATOM      9  N   LIG    1       -0.094  -8.206   0.212  0.00  0.00    -0.281 N 
ATOM     10  H   LIG    1        0.744  -8.685   0.302  0.00  0.00    +0.155 HD
ATOM     11  O   LIG    1       -1.157  -6.256   0.172  0.00  0.00    -0.270 OA
BRANCH   9  12
ATOM     12  C   LIG    1       -1.296  -8.913   0.107  0.00  0.00    +0.036 A 
ATOM     13  C   LIG    1       -1.413 -10.175   0.677  0.00  0.00    +0.035 A 
ATOM     14  C   LIG    1       -2.601 -10.872   0.577  0.00  0.00    +0.059 A 
ATOM     15  C   LIG    1       -3.674 -10.321  -0.097  0.00  0.00    +0.038 A 
ATOM     16  C   LIG    1       -3.562  -9.063  -0.673  0.00  0.00    +0.050 A 
ATOM     17  C   LIG    1       -2.372  -8.358  -0.571  0.00  0.00    +0.049 A 
BRANCH  16  18
ATOM     18  N   LIG    1       -4.652  -8.504  -1.357  0.00  0.00    -0.306 N 
ATOM     19  C   LIG    1       -4.688  -7.279  -1.971  0.00  0.00    +0.115 A 
ATOM     20  C   LIG    1       -5.918  -7.144  -2.500  0.00  0.00    +0.056 A 
ATOM     21  C   LIG    1       -6.422  -5.953  -3.274  0.00  0.00    +0.067 C 
ATOM     22  N   LIG    1       -6.619  -8.253  -2.220  0.00  0.00    -0.241 NA
ATOM     23  C   LIG    1       -5.870  -9.078  -1.541  0.00  0.00    +0.204 A 
ENDBRANCH  16  18
BRANCH  14  24
ATOM     24  C   LIG    1       -2.726 -12.239   1.200  0.00  0.00    +0.418 C 
ATOM     25  F   LIG    1       -4.054 -12.457   1.583  0.00  0.00    -0.166 F 
ATOM     26  F   LIG    1       -1.898 -12.315   2.325  0.00  0.00    -0.166 F 
ATOM     27  F   LIG    1       -2.342 -13.211   0.271  0.00  0.00    -0.166 F 
ENDBRANCH  14  24
ENDBRANCH   9  12
ENDBRANCH   5   8
BRANCH   7  28
ATOM     28  N   LIG    1        2.374  -2.628   0.129  0.00  0.00    -0.283 N 
ATOM     29  H   LIG    1        3.134  -2.137   0.479  0.00  0.00    +0.155 HD
BRANCH  28  30
ATOM     30  C   LIG    1        1.289  -1.943  -0.396  0.00  0.00    +0.220 A 
ATOM     31  N   LIG    1        0.320  -2.626  -0.988  0.00  0.00    -0.223 NA
ATOM     32  C   LIG    1       -0.732  -2.009  -1.502  0.00  0.00    +0.116 A 
ATOM     33  C   LIG    1       -0.816  -0.630  -1.417  0.00  0.00    +0.048 A 
ATOM     34  C   LIG    1        0.221   0.062  -0.787  0.00  0.00    +0.077 A 
ATOM     35  N   LIG    1        1.251  -0.624  -0.297  0.00  0.00    -0.214 NA
BRANCH  34  36
ATOM     36  C   LIG    1        0.177   1.540  -0.671  0.00  0.00    +0.019 A 
ATOM     37  C   LIG    1        1.214   2.234  -0.041  0.00  0.00    +0.013 A 
ATOM     38  C   LIG    1        1.127   3.613   0.042  0.00  0.00    +0.020 A 
ATOM     39  C   LIG    1        0.026   4.254  -0.497  0.00  0.00    +0.111 A 
ATOM     40  N   LIG    1       -0.938   3.573  -1.086  0.00  0.00    -0.263 NA
ATOM     41  C   LIG    1       -0.895   2.260  -1.193  0.00  0.00    +0.120 A 
ENDBRANCH  34  36
ENDBRANCH  28  30
ENDBRANCH   7  28
TORSDOF 7
