REMARK  Name = ZINC05921059
REMARK                            x       y       z     vdW  Elec       q    Type
REMARK                         _______ _______ _______ _____ _____    ______ ____
ROOT
ATOM      1  C   LIG    1        5.964   5.771   2.370  0.00  0.00    +0.012 C 
ATOM      2  C   LIG    1        5.436   5.204   1.053  0.00  0.00    -0.018 C 
ATOM      3  C   LIG    1        3.936   5.011   1.111  0.00  0.00    +0.008 C 
ATOM      4  C   LIG    1        3.629   3.522   1.349  0.00  0.00    +0.005 C 
ATOM      5  C   LIG    1        4.600   2.959   2.382  0.00  0.00    +0.000 C 
ATOM      6  C   LIG    1        5.998   2.856   1.809  0.00  0.00    -0.004 C 
ATOM      7  C   LIG    1        6.346   1.492   1.231  0.00  0.00    +0.006 C 
ATOM      8  C   LIG    1        5.875   0.325   2.085  0.00  0.00    +0.023 C 
ATOM      9  C   LIG    1        4.375   0.455   2.324  0.00  0.00    +0.079 C 
ATOM     10  N   LIG    1        3.839  -0.700   3.029  0.00  0.00    -0.312 N 
ATOM     11  H   LIG    1        4.256  -1.563   2.888  0.00  0.00    +0.149 HD
ATOM     12  C   LIG    1        2.788  -0.621   3.850  0.00  0.00    +0.213 C 
ATOM     13  O   LIG    1        2.356  -1.650   4.324  0.00  0.00    -0.276 OA
ATOM     14  C   LIG    1        2.114   0.666   4.221  0.00  0.00    +0.096 C 
ATOM     15  C   LIG    1        2.567   1.820   3.328  0.00  0.00    +0.018 C 
ATOM     16  C   LIG    1        4.076   1.735   3.086  0.00  0.00    -0.010 C 
ATOM     17  C   LIG    1        4.765   1.674   4.453  0.00  0.00    +0.013 C 
ATOM     18  C   LIG    1        5.912   6.119  -0.091  0.00  0.00    +0.081 C 
ATOM     19  C   LIG    1        7.378   5.685  -0.335  0.00  0.00    +0.013 C 
ATOM     20  C   LIG    1        7.561   4.321   0.383  0.00  0.00    +0.005 C 
ATOM     21  C   LIG    1        6.121   3.873   0.680  0.00  0.00    -0.001 C 
ENDROOT
BRANCH  18  22
ATOM     22  C   LIG    1        5.856   7.558   0.342  0.00  0.00    +0.217 C 
ATOM     23  N   LIG    1        6.752   8.443  -0.139  0.00  0.00    -0.310 N 
ATOM     24  H   LIG    1        7.433   8.151  -0.765  0.00  0.00    +0.149 HD
ATOM     25  O   LIG    1        5.005   7.923   1.125  0.00  0.00    -0.275 OA
BRANCH  23  26
ATOM     26  C   LIG    1        6.697   9.845   0.283  0.00  0.00    +0.026 C 
ATOM     27  C   LIG    1        5.343  10.441  -0.106  0.00  0.00    +0.031 C 
ATOM     28  C   LIG    1        7.816  10.629  -0.406  0.00  0.00    +0.031 C 
ATOM     29  C   LIG    1        6.875   9.928   1.800  0.00  0.00    +0.031 C 
ENDBRANCH  23  26
ENDBRANCH  18  22
TORSDOF 2
