REMARK  Name = ZINC06322270
REMARK                            x       y       z     vdW  Elec       q    Type
REMARK                         _______ _______ _______ _____ _____    ______ ____
ROOT
ATOM      1  N   LIG    1       -1.948  -1.147  -1.567  0.00  0.00    -0.108 N 
ATOM      2  H   LIG    1       -2.792  -0.799  -1.896  0.00  0.00    +0.211 HD
ENDROOT
BRANCH   1   3
ATOM      3  S   LIG    1       -1.512  -0.905   0.012  0.00  0.00    +0.095 S 
ATOM      4  O   LIG    1       -2.492  -0.046   0.577  0.00  0.00    -0.148 OA
ATOM      5  O   LIG    1       -1.218  -2.186   0.553  0.00  0.00    -0.148 OA
BRANCH   3  12
ATOM      6  C   LIG    1       -0.017   1.378   0.010  0.00  0.00    +0.030 A 
ATOM      7  C   LIG    1        1.171   2.086   0.002  0.00  0.00    +0.022 A 
ATOM      8  C   LIG    1        2.378   1.410  -0.013  0.00  0.00    +0.041 A 
ATOM      9 CL   LIG    1        3.870   2.298  -0.023  0.00  0.00    -0.084 Cl
ATOM     10  C   LIG    1        2.396   0.027  -0.021  0.00  0.00    +0.022 A 
ATOM     11  C   LIG    1        1.208  -0.679  -0.013  0.00  0.00    +0.030 A 
ATOM     12  C   LIG    1        0.002  -0.004   0.002  0.00  0.00    +0.111 A 
ENDBRANCH   3  12
ENDBRANCH   1   3
BRANCH   1  13
ATOM     13  N   LIG    1       -1.099  -1.855  -2.428  0.00  0.00    -0.173 N 
ATOM     14  H   LIG    1       -0.256  -2.204  -2.099  0.00  0.00    +0.289 HD
ATOM     15  C   LIG    1       -1.442  -2.045  -3.666  0.00  0.00    +0.362 C 
BRANCH  15  16
ATOM     16  N   LIG    1       -0.600  -2.746  -4.519  0.00  0.00    -0.290 N 
ATOM     17  H   LIG    1       -0.856  -2.888  -5.444  0.00  0.00    +0.255 HD
ATOM     18  H   LIG    1        0.243  -3.095  -4.190  0.00  0.00    +0.255 HD
ENDBRANCH  15  16
BRANCH  15  19
ATOM     19  N   LIG    1       -2.648  -1.546  -4.137  0.00  0.00    -0.290 N 
ATOM     20  H   LIG    1       -2.904  -1.688  -5.062  0.00  0.00    +0.255 HD
ATOM     21  H   LIG    1       -3.236  -1.056  -3.541  0.00  0.00    +0.255 HD
ENDBRANCH  15  19
ENDBRANCH   1  13
TORSDOF 5
