REMARK  Name = ZINC08555900
REMARK                            x       y       z     vdW  Elec       q    Type
REMARK                         _______ _______ _______ _____ _____    ______ ____
ROOT
ATOM      1  C   LIG    1        2.624   1.250   0.217  0.00  0.00    +0.098 A 
ATOM      2  C   LIG    1        3.544   1.552  -0.818  0.00  0.00    +0.099 A 
ATOM      3  N   LIG    1        4.572   0.754  -1.053  0.00  0.00    -0.224 NA
ATOM      4  C   LIG    1        4.736  -0.348  -0.317  0.00  0.00    +0.186 A 
ATOM      5  C   LIG    1        3.810  -0.650   0.714  0.00  0.00    +0.170 A 
ATOM      6  C   LIG    1        4.019  -1.828   1.472  0.00  0.00    +0.244 A 
ATOM      7  N   LIG    1        5.065  -2.586   1.181  0.00  0.00    -0.200 NA
ATOM      8  C   LIG    1        5.903  -2.263   0.210  0.00  0.00    +0.227 A 
ATOM      9  N   LIG    1        5.761  -1.185  -0.526  0.00  0.00    -0.214 NA
ATOM     10  N   LIG    1        2.780   0.161   0.949  0.00  0.00    -0.236 NA
ENDROOT
BRANCH   1  17
ATOM     11  C   LIG    1        1.676   3.534   0.518  0.00  0.00    +0.013 A 
ATOM     12  C   LIG    1        0.608   4.372   0.763  0.00  0.00    +0.039 A 
ATOM     13  C   LIG    1       -0.659   3.846   0.955  0.00  0.00    +0.123 A 
ATOM     14  F   LIG    1       -1.703   4.671   1.189  0.00  0.00    -0.205 F 
ATOM     15  C   LIG    1       -0.859   2.475   0.912  0.00  0.00    +0.039 A 
ATOM     16  C   LIG    1        0.204   1.628   0.673  0.00  0.00    +0.013 A 
ATOM     17  C   LIG    1        1.480   2.154   0.474  0.00  0.00    +0.003 A 
ENDBRANCH   1  17
BRANCH   2  18
ATOM     18  C   LIG    1        3.357   2.772  -1.636  0.00  0.00    +0.003 A 
ATOM     19  C   LIG    1        2.095   3.091  -2.137  0.00  0.00    +0.013 A 
ATOM     20  C   LIG    1        1.924   4.231  -2.894  0.00  0.00    +0.039 A 
ATOM     21  C   LIG    1        3.006   5.053  -3.167  0.00  0.00    +0.123 A 
ATOM     22  F   LIG    1        2.836   6.165  -3.914  0.00  0.00    -0.205 F 
ATOM     23  C   LIG    1        4.263   4.737  -2.676  0.00  0.00    +0.039 A 
ATOM     24  C   LIG    1        4.443   3.602  -1.913  0.00  0.00    +0.013 A 
ENDBRANCH   2  18
BRANCH   6  25
ATOM     25  O   LIG    1        3.170  -2.170   2.469  0.00  0.00    -0.491 OA
ATOM     26  H   LIG    1        2.434  -1.626   2.665  0.00  0.00    +0.294 HD
ENDBRANCH   6  25
TORSDOF 3
