REMARK  Name = ZINC06576212
REMARK                            x       y       z     vdW  Elec       q    Type
REMARK                         _______ _______ _______ _____ _____    ______ ____
ROOT
ATOM      1  C   LIG    1        2.714  -4.241  -0.047  0.00  0.00    +0.136 C 
ENDROOT
BRANCH   1   8
ATOM      2  C   LIG    1        1.774   1.642  -1.915  0.00  0.00    +0.001 A 
ATOM      3  C   LIG    1        1.723   2.172  -0.634  0.00  0.00    +0.004 A 
ATOM      4  C   LIG    1        1.873   1.360   0.469  0.00  0.00    +0.047 A 
ATOM      5  C   LIG    1        2.077  -0.004   0.303  0.00  0.00    +0.143 A 
ATOM      6  C   LIG    1        2.128  -0.539  -0.993  0.00  0.00    +0.065 A 
ATOM      7  C   LIG    1        2.345  -1.992  -1.146  0.00  0.00    +0.200 A 
ATOM      8  C   LIG    1        2.490  -2.753   0.034  0.00  0.00    +0.095 A 
ATOM      9  C   LIG    1        2.425  -2.136   1.242  0.00  0.00    +0.292 A 
ATOM     10  O   LIG    1        2.399  -2.514  -2.248  0.00  0.00    -0.287 OA
ATOM     11  O   LIG    1        2.227  -0.818   1.370  0.00  0.00    -0.425 OA
ATOM     12  C   LIG    1        1.975   0.292  -2.101  0.00  0.00    +0.015 A 
BRANCH   9  13
ATOM     13  O   LIG    1        2.565  -2.881   2.359  0.00  0.00    -0.480 OA
ATOM     14  H   LIG    1        2.704  -3.805   2.291  0.00  0.00    +0.295 HD
ENDBRANCH   9  13
ENDBRANCH   1   8
BRANCH   1  15
ATOM     15  C   LIG    1        2.300  -4.883   1.252  0.00  0.00    +0.095 A 
ATOM     16  C   LIG    1        0.967  -4.780   1.701  0.00  0.00    +0.200 A 
ATOM     17  C   LIG    1        0.630  -5.433   2.983  0.00  0.00    +0.065 A 
ATOM     18  C   LIG    1       -0.661  -5.385   3.505  0.00  0.00    +0.015 A 
ATOM     19  C   LIG    1       -0.933  -6.007   4.704  0.00  0.00    +0.001 A 
ATOM     20  C   LIG    1        0.070  -6.677   5.388  0.00  0.00    +0.004 A 
ATOM     21  C   LIG    1        1.352  -6.731   4.882  0.00  0.00    +0.047 A 
ATOM     22  C   LIG    1        1.646  -6.110   3.674  0.00  0.00    +0.143 A 
ATOM     23  O   LIG    1        2.893  -6.152   3.160  0.00  0.00    -0.425 OA
ATOM     24  O   LIG    1        0.124  -4.177   1.056  0.00  0.00    -0.287 OA
ATOM     25  C   LIG    1        3.207  -5.568   1.996  0.00  0.00    +0.292 A 
BRANCH  25  26
ATOM     26  O   LIG    1        4.477  -5.660   1.547  0.00  0.00    -0.480 OA
ATOM     27  H   LIG    1        5.064  -6.162   2.128  0.00  0.00    +0.295 HD
ENDBRANCH  25  26
ENDBRANCH   1  15
BRANCH   1  28
ATOM     28  C   LIG    1        1.893  -4.813  -1.174  0.00  0.00    +0.117 A 
ATOM     29  C   LIG    1        2.353  -5.602  -2.161  0.00  0.00    +0.045 A 
ATOM     30  C   LIG    1        1.251  -5.903  -2.993  0.00  0.00    +0.041 A 
ATOM     31  C   LIG    1        0.182  -5.280  -2.464  0.00  0.00    +0.195 A 
ATOM     32  O   LIG    1        0.576  -4.626  -1.359  0.00  0.00    -0.467 OA
ENDBRANCH   1  28
TORSDOF 5
