REMARK  Name = ZINC06627681
REMARK                            x       y       z     vdW  Elec       q    Type
REMARK                         _______ _______ _______ _____ _____    ______ ____
ROOT
ATOM      1  C   LIG    1       -4.871   0.264   0.038  0.00  0.00    +0.075 C 
ENDROOT
BRANCH   1   4
ATOM      2  C   LIG    1       -1.201  -0.638   0.010  0.00  0.00    +0.165 A 
ATOM      3  C   LIG    1       -2.375   0.101   0.019  0.00  0.00    +0.053 A 
ATOM      4  C   LIG    1       -3.598  -0.543   0.028  0.00  0.00    -0.036 A 
ATOM      5  C   LIG    1       -3.657  -1.924   0.027  0.00  0.00    +0.053 A 
ATOM      6  C   LIG    1       -2.488  -2.670   0.017  0.00  0.00    +0.165 A 
ATOM      7  C   LIG    1       -1.256  -2.027   0.003  0.00  0.00    +0.204 A 
BRANCH   2   9
ATOM      8  C   LIG    1       -0.017   1.425   0.010  0.00  0.00    +0.277 C 
ATOM      9  O   LIG    1        0.002  -0.004   0.002  0.00  0.00    -0.491 OA
ENDBRANCH   2   9
BRANCH   6  10
ATOM     10  O   LIG    1       -2.547  -4.028   0.017  0.00  0.00    -0.491 OA
ATOM     11  C   LIG    1       -3.847  -4.621   0.026  0.00  0.00    +0.277 C 
ENDBRANCH   6  10
BRANCH   7  12
ATOM     12  O   LIG    1       -0.106  -2.755  -0.012  0.00  0.00    -0.488 OA
ATOM     13  C   LIG    1        0.454  -3.109   1.254  0.00  0.00    +0.277 C 
ENDBRANCH   7  12
ENDBRANCH   1   4
BRANCH   1  14
ATOM     14  C   LIG    1       -5.306   0.535  -1.379  0.00  0.00    +0.015 A 
ATOM     15  C   LIG    1       -4.955   1.710  -2.013  0.00  0.00    +0.121 A 
ATOM     16  N   LIG    1       -5.352   1.918  -3.260  0.00  0.00    -0.223 NA
ATOM     17  C   LIG    1       -6.080   1.016  -3.902  0.00  0.00    +0.214 A 
ATOM     18  N   LIG    1       -6.438  -0.123  -3.329  0.00  0.00    -0.200 NA
ATOM     19  C   LIG    1       -6.069  -0.400  -2.083  0.00  0.00    +0.125 A 
BRANCH  17  20
ATOM     20  N   LIG    1       -6.476   1.271  -5.203  0.00  0.00    -0.327 N 
ATOM     21  H   LIG    1       -7.008   0.619  -5.685  0.00  0.00    +0.145 HD
ATOM     22  H   LIG    1       -6.220   2.101  -5.634  0.00  0.00    +0.145 HD
ENDBRANCH  17  20
BRANCH  19  23
ATOM     23  N   LIG    1       -6.440  -1.595  -1.488  0.00  0.00    -0.343 N 
ATOM     24  H   LIG    1       -6.970  -2.239  -1.984  0.00  0.00    +0.144 HD
ATOM     25  H   LIG    1       -6.171  -1.787  -0.577  0.00  0.00    +0.144 HD
ENDBRANCH  19  23
ENDBRANCH   1  14
TORSDOF 7
