REMARK  Name = ZINC05934541
REMARK                            x       y       z     vdW  Elec       q    Type
REMARK                         _______ _______ _______ _____ _____    ______ ____
ROOT
ATOM      1  C   LIG    1        3.694  -0.682  -0.037  0.00  0.00    +0.139 A 
ATOM      2  C   LIG    1        3.698  -2.061  -0.051  0.00  0.00    +0.093 A 
ATOM      3  C   LIG    1        4.913  -2.751  -0.066  0.00  0.00    +0.131 A 
ATOM      4  C   LIG    1        6.112  -1.999  -0.069  0.00  0.00    +0.059 A 
ATOM      5  C   LIG    1        7.363  -2.640  -0.085  0.00  0.00    +0.019 A 
ATOM      6  C   LIG    1        8.504  -1.903  -0.087  0.00  0.00    +0.052 A 
ATOM      7  C   LIG    1        8.441  -0.497  -0.073  0.00  0.00    +0.183 A 
ATOM      8  C   LIG    1        7.204   0.154  -0.057  0.00  0.00    +0.097 A 
ATOM      9  O   LIG    1        9.567   0.218  -0.076  0.00  0.00    -0.288 OA
ATOM     10  C   LIG    1        6.039  -0.589  -0.054  0.00  0.00    +0.143 A 
ATOM     11  O   LIG    1        4.836   0.023  -0.045  0.00  0.00    -0.454 OA
ENDROOT
BRANCH   1  15
ATOM     12  C   LIG    1       -0.017   1.380   0.010  0.00  0.00    +0.000 A 
ATOM     13  C   LIG    1        1.168   2.095   0.002  0.00  0.00    +0.001 A 
ATOM     14  C   LIG    1        2.377   1.432  -0.013  0.00  0.00    +0.011 A 
ATOM     15  C   LIG    1        2.404   0.035  -0.021  0.00  0.00    +0.017 A 
ATOM     16  C   LIG    1        1.204  -0.681  -0.013  0.00  0.00    +0.011 A 
ATOM     17  C   LIG    1        0.002  -0.004   0.002  0.00  0.00    +0.001 A 
ENDBRANCH   1  15
BRANCH   3  18
ATOM     18  O   LIG    1        4.942  -4.101  -0.079  0.00  0.00    -0.506 OA
ATOM     19  H   LIG    1        4.141  -4.587  -0.077  0.00  0.00    +0.292 HD
ENDBRANCH   3  18
TORSDOF 2
