REMARK  Name = ZINC06575206
REMARK                            x       y       z     vdW  Elec       q    Type
REMARK                         _______ _______ _______ _____ _____    ______ ____
ROOT
ATOM      1  C   LIG    1        1.472  -2.024  -0.023  0.00  0.00    +0.102 C 
ENDROOT
BRANCH   1   2
ATOM      2  C   LIG    1        0.866  -2.528  -1.308  0.00  0.00    +0.308 C 
ATOM      3  O   LIG    1        0.460  -1.744  -2.132  0.00  0.00    -0.251 OA
BRANCH   2   4
ATOM      4  O   LIG    1        0.778  -3.848  -1.536  0.00  0.00    -0.480 OA
ATOM      5  H   LIG    1        1.094  -4.456  -0.897  0.00  0.00    +0.295 HD
ENDBRANCH   2   4
ENDBRANCH   1   2
BRANCH   1   6
ATOM      6  C   LIG    1        2.917  -2.515   0.086  0.00  0.00    +0.049 C 
BRANCH   6  10
ATOM      7  C   LIG    1        2.953  -6.774   0.413  0.00  0.00    +0.000 A 
ATOM      8  C   LIG    1        3.006  -6.176  -0.832  0.00  0.00    +0.000 A 
ATOM      9  C   LIG    1        2.994  -4.798  -0.938  0.00  0.00    +0.003 A 
ATOM     10  C   LIG    1        2.929  -4.018   0.202  0.00  0.00    -0.047 A 
ATOM     11  C   LIG    1        2.882  -4.616   1.447  0.00  0.00    +0.003 A 
ATOM     12  C   LIG    1        2.888  -5.994   1.553  0.00  0.00    +0.000 A 
ENDBRANCH   6  10
ENDBRANCH   1   6
BRANCH   1  13
ATOM     13  C   LIG    1        1.451  -0.494  -0.015  0.00  0.00    +0.026 C 
BRANCH  13  14
ATOM     14  C   LIG    1        0.002  -0.004   0.002  0.00  0.00    +0.121 C 
BRANCH  14  15
ATOM     15  C   LIG    1       -0.018   1.503   0.010  0.00  0.00    +0.305 C 
ATOM     16  O   LIG    1        1.020   2.121   0.004  0.00  0.00    -0.251 OA
BRANCH  15  17
ATOM     17  O   LIG    1       -1.190   2.158   0.019  0.00  0.00    -0.481 OA
ATOM     18  H   LIG    1       -1.995   1.678   0.025  0.00  0.00    +0.295 HD
ENDBRANCH  15  17
ENDBRANCH  14  15
ENDBRANCH  13  14
ENDBRANCH   1  13
TORSDOF 8
