REMARK  Name = ZINC06036223
REMARK                            x       y       z     vdW  Elec       q    Type
REMARK                         _______ _______ _______ _____ _____    ______ ____
ROOT
ATOM      1  C   LIG    1       -0.772   1.460   3.762  0.00  0.00    -0.002 C 
ATOM      2  C   LIG    1       -2.175   0.802   3.743  0.00  0.00    +0.004 C 
ATOM      3  C   LIG    1       -2.278  -0.048   5.039  0.00  0.00    +0.004 C 
ATOM      4  C   LIG    1       -1.266   0.627   5.972  0.00  0.00    -0.001 C 
ATOM      5  C   LIG    1       -0.745  -0.231   7.111  0.00  0.00    +0.000 C 
ATOM      6  C   LIG    1       -1.877  -0.550   8.092  0.00  0.00    +0.031 C 
ATOM      7  C   LIG    1       -1.311  -1.255   9.290  0.00  0.00    -0.027 C 
ATOM      8  C   LIG    1       -0.080  -1.105   9.684  0.00  0.00    -0.065 C 
ATOM      9  C   LIG    1        0.919  -0.226   8.992  0.00  0.00    -0.008 C 
ATOM     10  C   LIG    1        2.018  -1.117   8.412  0.00  0.00    +0.016 C 
ATOM     11  C   LIG    1        1.558   0.707  10.025  0.00  0.00    +0.014 C 
ATOM     12  C   LIG    1        2.156  -0.126  11.160  0.00  0.00    +0.032 C 
ATOM     13  C   LIG    1        1.032  -0.869  11.883  0.00  0.00    +0.119 C 
ATOM     14  C   LIG    1        0.377  -1.864  10.919  0.00  0.00    +0.062 C 
ATOM     15  C   LIG    1        0.319   0.588   7.858  0.00  0.00    +0.003 C 
ATOM     16  C   LIG    1        1.429   1.080   6.933  0.00  0.00    +0.005 C 
ATOM     17  C   LIG    1        0.866   1.845   5.725  0.00  0.00    +0.007 C 
ATOM     18  C   LIG    1       -0.084   0.907   5.006  0.00  0.00    -0.026 C 
ATOM     19  C   LIG    1        0.630  -0.403   4.665  0.00  0.00    +0.012 C 
ENDROOT
BRANCH   1  21
ATOM     20  C   LIG    1        1.405   1.701   2.561  0.00  0.00    +0.008 C 
ATOM     21  C   LIG    1        0.011   1.072   2.506  0.00  0.00    -0.010 C 
BRANCH  21  22
ATOM     22  C   LIG    1       -0.729   1.579   1.267  0.00  0.00    +0.014 C 
BRANCH  22  23
ATOM     23  C   LIG    1       -0.013   1.086   0.008  0.00  0.00    +0.121 C 
BRANCH  23  24
ATOM     24  C   LIG    1       -0.742   1.585  -1.213  0.00  0.00    +0.305 C 
ATOM     25  O   LIG    1       -1.732   2.266  -1.089  0.00  0.00    -0.251 OA
BRANCH  24  26
ATOM     26  O   LIG    1       -0.290   1.274  -2.438  0.00  0.00    -0.481 OA
ATOM     27  H   LIG    1        0.478   0.746  -2.534  0.00  0.00    +0.295 HD
ENDBRANCH  24  26
ENDBRANCH  23  24
ENDBRANCH  22  23
ENDBRANCH  21  22
ENDBRANCH   1  21
BRANCH  13  28
ATOM     28  O   LIG    1        1.569  -1.575  13.003  0.00  0.00    -0.391 OA
ATOM     29  H   LIG    1        0.911  -2.071  13.509  0.00  0.00    +0.210 HD
ENDBRANCH  13  28
TORSDOF 6
