REMARK  Name = ZINC08454710
REMARK                            x       y       z     vdW  Elec       q    Type
REMARK                         _______ _______ _______ _____ _____    ______ ____
ROOT
ATOM      1  C   LIG    1       -0.055   5.358   0.063  0.00  0.00    +0.073 A 
ATOM      2  C   LIG    1       -1.297   6.011   0.076  0.00  0.00    +0.042 A 
ATOM      3  C   LIG    1       -1.338   7.398   0.071  0.00  0.00    +0.050 A 
ATOM      4  C   LIG    1       -0.058   8.107   0.053  0.00  0.00    +0.013 A 
ATOM      5  C   LIG    1        0.003   9.505   0.047  0.00  0.00    +0.011 A 
ATOM      6  C   LIG    1        1.217  10.126   0.030  0.00  0.00    +0.001 A 
ATOM      7  C   LIG    1        2.397   9.386   0.018  0.00  0.00    +0.002 A 
ATOM      8  C   LIG    1        2.374   8.025   0.024  0.00  0.00    +0.028 A 
ATOM      9  C   LIG    1        1.140   7.349   0.042  0.00  0.00    +0.072 A 
ATOM     10  N   LIG    1        1.085   6.016   0.052  0.00  0.00    -0.247 NA
ENDROOT
BRANCH   1  15
ATOM     11  C   LIG    1        1.214   1.816   0.061  0.00  0.00    +0.121 A 
ATOM     12  C   LIG    1        0.023   1.104   0.079  0.00  0.00    +0.045 A 
ATOM     13  C   LIG    1       -1.187   1.772   0.085  0.00  0.00    +0.004 A 
ATOM     14  C   LIG    1       -1.217   3.153   0.086  0.00  0.00    +0.010 A 
ATOM     15  C   LIG    1       -0.025   3.876   0.068  0.00  0.00    +0.004 A 
ATOM     16  C   LIG    1        1.194   3.201   0.056  0.00  0.00    +0.055 A 
BRANCH  11  17
ATOM     17  O   LIG    1        2.401   1.154   0.049  0.00  0.00    -0.492 OA
BRANCH  17  18
ATOM     18  C   LIG    1        2.348  -0.274   0.055  0.00  0.00    +0.229 C 
BRANCH  18  19
ATOM     19  C   LIG    1        3.770  -0.837   0.040  0.00  0.00    +0.041 C 
BRANCH  19  21
ATOM     20  C   LIG    1        5.136  -2.930   0.030  0.00  0.00    +0.004 C 
ATOM     21  C   LIG    1        3.713  -2.366   0.046  0.00  0.00    -0.000 C 
ENDBRANCH  19  21
ENDBRANCH  18  19
ENDBRANCH  17  18
ENDBRANCH  11  17
ENDBRANCH   1  15
BRANCH   3  22
ATOM     22  C   LIG    1       -2.622   8.130   0.083  0.00  0.00    +0.264 C 
ATOM     23  N   LIG    1       -3.784   7.453  -0.008  0.00  0.00    -0.203 N 
ATOM     24  H   LIG    1       -3.777   6.485  -0.082  0.00  0.00    +0.178 HD
ATOM     25  O   LIG    1       -2.631   9.342   0.175  0.00  0.00    -0.268 OA
BRANCH  23  26
ATOM     26  N   LIG    1       -5.001   8.146   0.004  0.00  0.00    -0.184 NA
ATOM     27  C   LIG    1       -6.120   7.494  -0.084  0.00  0.00    +0.063 C 
ATOM     28  C   LIG    1       -6.110   5.991  -0.198  0.00  0.00    +0.068 C 
BRANCH  27  29
ATOM     29  C   LIG    1       -7.402   8.224  -0.072  0.00  0.00    -0.001 A 
ATOM     30  C   LIG    1       -8.608   7.525  -0.172  0.00  0.00    +0.010 A 
ATOM     31  C   LIG    1       -9.805   8.210  -0.155  0.00  0.00    +0.002 A 
ATOM     32  C   LIG    1       -9.817   9.589  -0.050  0.00  0.00    +0.023 A 
ATOM     33  C   LIG    1       -8.623  10.294   0.045  0.00  0.00    +0.034 A 
ATOM     34  C   LIG    1       -7.414   9.615   0.034  0.00  0.00    +0.033 A 
BRANCH  33  35
ATOM     35  N   LIG    1       -8.641  11.689   0.151  0.00  0.00    -0.285 N 
ATOM     36  H   LIG    1       -9.353  12.129   0.641  0.00  0.00    +0.155 HD
ATOM     37  C   LIG    1       -7.669  12.421  -0.428  0.00  0.00    +0.223 C 
ATOM     38  O   LIG    1       -6.834  11.881  -1.122  0.00  0.00    -0.275 OA
BRANCH  37  39
ATOM     39  C   LIG    1       -7.620  13.912  -0.213  0.00  0.00    +0.039 C 
ATOM     40  C   LIG    1       -7.465  14.207   1.280  0.00  0.00    +0.020 C 
ATOM     41  C   LIG    1       -8.915  14.545  -0.727  0.00  0.00    +0.020 C 
ATOM     42  C   LIG    1       -6.429  14.498  -0.975  0.00  0.00    +0.020 C 
ENDBRANCH  37  39
ENDBRANCH  33  35
ENDBRANCH  27  29
ENDBRANCH  23  26
ENDBRANCH   3  22
TORSDOF 10
