REMARK  Name = ZINC06091809
REMARK                            x       y       z     vdW  Elec       q    Type
REMARK                         _______ _______ _______ _____ _____    ______ ____
ROOT
ATOM      1  C   LIG    1       -1.301  -2.236   0.656  0.00  0.00    +0.392 C 
ATOM      2  N   LIG    1       -0.137  -2.820   0.629  0.00  0.00    -0.129 NA
ATOM      3  H   LIG    1       -0.007  -3.618   0.094  0.00  0.00    +0.306 HD
ENDROOT
BRANCH   1   4
ATOM      4  N   LIG    1       -1.459  -1.048   1.332  0.00  0.00    -0.243 N 
ATOM      5  H   LIG    1       -2.342  -0.658   1.429  0.00  0.00    +0.265 HD
BRANCH   4  13
ATOM      6  C   LIG    1        0.915  -0.604   1.335  0.00  0.00    +0.044 A 
ATOM      7  C   LIG    1        2.013   0.035   1.878  0.00  0.00    +0.025 A 
ATOM      8  C   LIG    1        1.857   0.878   2.964  0.00  0.00    +0.059 A 
ATOM      9 CL   LIG    1        3.239   1.679   3.644  0.00  0.00    -0.082 Cl
ATOM     10  C   LIG    1        0.601   1.083   3.510  0.00  0.00    +0.062 A 
ATOM     11 CL   LIG    1        0.410   2.140   4.874  0.00  0.00    -0.082 Cl
ATOM     12  C   LIG    1       -0.500   0.445   2.971  0.00  0.00    +0.063 A 
ATOM     13  C   LIG    1       -0.346  -0.401   1.881  0.00  0.00    +0.101 A 
ENDBRANCH   4  13
ENDBRANCH   1   4
BRANCH   1  14
ATOM     14  N   LIG    1       -2.376  -2.808   0.006  0.00  0.00    -0.189 N 
ATOM     15  H   LIG    1       -2.289  -3.689  -0.390  0.00  0.00    +0.271 HD
BRANCH  14  16
ATOM     16  C   LIG    1       -3.567  -2.131  -0.079  0.00  0.00    +0.350 C 
ATOM     17  N   LIG    1       -4.702  -2.801  -0.269  0.00  0.00    -0.291 N 
ATOM     18  H   LIG    1       -5.543  -2.323  -0.329  0.00  0.00    +0.255 HD
ATOM     19  H   LIG    1       -4.686  -3.768  -0.347  0.00  0.00    +0.255 HD
BRANCH  16  20
ATOM     20  N   LIG    1       -3.588  -0.805   0.029  0.00  0.00    -0.291 N 
ATOM     21  H   LIG    1       -4.427  -0.344   0.186  0.00  0.00    +0.255 HD
ATOM     22  H   LIG    1       -2.764  -0.299  -0.049  0.00  0.00    +0.255 HD
ENDBRANCH  16  20
ENDBRANCH  14  16
ENDBRANCH   1  14
TORSDOF 5
