REMARK  Name = ZINC06749231
REMARK                            x       y       z     vdW  Elec       q    Type
REMARK                         _______ _______ _______ _____ _____    ______ ____
ROOT
ATOM      1  C   LIG    1        0.000   9.388   0.396  0.00  0.00    +0.119 A 
ATOM      2  N   LIG    1       -0.266   8.135   0.671  0.00  0.00    -0.335 N 
ATOM      3  H   LIG    1       -1.179   7.772   0.969  0.00  0.00    +0.167 HD
ATOM      4  C   LIG    1        0.851   7.397   0.500  0.00  0.00    +0.123 A 
ATOM      5  C   LIG    1        1.845   8.241   0.103  0.00  0.00    +0.049 A 
ATOM      6  C   LIG    1        3.264   7.870  -0.241  0.00  0.00    +0.056 C 
ATOM      7  C   LIG    1        4.171   9.076   0.016  0.00  0.00    +0.006 C 
ATOM      8  C   LIG    1        4.234   9.944  -1.239  0.00  0.00    +0.002 C 
ATOM      9  C   LIG    1        2.843  10.464  -1.598  0.00  0.00    +0.022 C 
ATOM     10  C   LIG    1        2.036  10.708  -0.320  0.00  0.00    +0.123 C 
ATOM     11  N   LIG    1        1.316   9.485   0.042  0.00  0.00    -0.328 N 
ENDROOT
BRANCH   1  16
ATOM     12  C   LIG    1       -3.741  13.755   0.639  0.00  0.00    +0.044 C 
ATOM     13  C   LIG    1       -2.762  12.611   0.574  0.00  0.00    -0.050 A 
ATOM     14  C   LIG    1       -3.203  11.344   0.240  0.00  0.00    +0.004 A 
ATOM     15  C   LIG    1       -2.312  10.293   0.180  0.00  0.00    +0.012 A 
ATOM     16  C   LIG    1       -0.962  10.511   0.457  0.00  0.00    +0.016 A 
ATOM     17  C   LIG    1       -0.523  11.790   0.798  0.00  0.00    +0.012 A 
ATOM     18  C   LIG    1       -1.424  12.834   0.850  0.00  0.00    +0.004 A 
ENDBRANCH   1  16
BRANCH   4  19
ATOM     19  C   LIG    1        0.975   5.945   0.709  0.00  0.00    +0.267 C 
ATOM     20  N   LIG    1       -0.093   5.227   1.110  0.00  0.00    -0.265 N 
ATOM     21  H   LIG    1       -0.961   5.653   1.189  0.00  0.00    +0.157 HD
ATOM     22  O   LIG    1        2.042   5.393   0.521  0.00  0.00    -0.268 OA
BRANCH  20  23
ATOM     23  C   LIG    1        0.049   3.875   1.411  0.00  0.00    +0.125 A 
ATOM     24  C   LIG    1       -1.031   3.166   1.926  0.00  0.00    +0.044 A 
ATOM     25  C   LIG    1       -0.876   1.823   2.220  0.00  0.00    +0.005 A 
ATOM     26  C   LIG    1        0.359   1.232   1.988  0.00  0.00    +0.020 A 
ATOM     27  C   LIG    1        1.390   1.998   1.480  0.00  0.00    +0.113 A 
ATOM     28  N   LIG    1        1.211   3.275   1.204  0.00  0.00    -0.240 NA
ENDBRANCH  20  23
ENDBRANCH   4  19
TORSDOF 3
