REMARK  Name = ZINC06511795
REMARK                            x       y       z     vdW  Elec       q    Type
REMARK                         _______ _______ _______ _____ _____    ______ ____
ROOT
ATOM      1  N   LIG    1        4.733   6.112   0.378  0.00  0.00    -0.283 N 
ATOM      2  C   LIG    1        5.649   5.247   0.855  0.00  0.00    +0.264 C 
ATOM      3  O   LIG    1        6.833   5.435   0.641  0.00  0.00    -0.268 OA
ENDROOT
BRANCH   2   4
ATOM      4  C   LIG    1        5.221   4.080   1.631  0.00  0.00    +0.102 A 
ATOM      5  C   LIG    1        3.918   3.742   1.937  0.00  0.00    +0.033 A 
ATOM      6  C   LIG    1        3.955   2.567   2.685  0.00  0.00    +0.028 A 
ATOM      7  C   LIG    1        5.277   2.204   2.827  0.00  0.00    +0.047 A 
ATOM      8  N   LIG    1        6.048   3.131   2.189  0.00  0.00    -0.351 N 
ATOM      9  H   LIG    1        7.017   3.121   2.135  0.00  0.00    +0.166 HD
BRANCH   7  10
ATOM     10  C   LIG    1        5.775   1.016   3.552  0.00  0.00    -0.002 A 
ATOM     11  C   LIG    1        7.146   0.760   3.622  0.00  0.00    +0.010 A 
ATOM     12  C   LIG    1        7.604  -0.350   4.300  0.00  0.00    +0.001 A 
ATOM     13  C   LIG    1        6.708  -1.210   4.911  0.00  0.00    +0.000 A 
ATOM     14  C   LIG    1        5.348  -0.962   4.845  0.00  0.00    +0.001 A 
ATOM     15  C   LIG    1        4.877   0.145   4.170  0.00  0.00    +0.010 A 
ENDBRANCH   7  10
ENDBRANCH   2   4
BRANCH   1  16
ATOM     16  C   LIG    1        3.321   5.954   0.734  0.00  0.00    +0.091 C 
BRANCH  16  17
ATOM     17  C   LIG    1        2.719   4.796  -0.065  0.00  0.00    -0.060 C 
BRANCH  17  18
ATOM     18  N   LIG    1        1.313   4.611   0.351  0.00  0.00    +0.380 N 
ATOM     19  H   LIG    1        1.269   4.590   1.377  0.00  0.00    -0.082 HD
BRANCH  18  21
ATOM     20  C   LIG    1       -0.904   5.635   0.486  0.00  0.00    -0.017 C 
ATOM     21  C   LIG    1        0.488   5.733  -0.142  0.00  0.00    -0.082 C 
ENDBRANCH  18  21
BRANCH  18  22
ATOM     22  C   LIG    1        0.795   3.331  -0.177  0.00  0.00    -0.082 C 
ATOM     23  C   LIG    1        1.357   2.187   0.669  0.00  0.00    -0.017 C 
ENDBRANCH  18  22
ENDBRANCH  17  18
ENDBRANCH  16  17
ENDBRANCH   1  16
BRANCH   1  24
ATOM     24  C   LIG    1        5.148   7.211  -0.498  0.00  0.00    +0.192 C 
BRANCH  24  25
ATOM     25  C   LIG    1        4.618   6.973  -1.888  0.00  0.00    -0.018 A 
ATOM     26  C   LIG    1        3.257   6.852  -2.097  0.00  0.00    +0.009 A 
ATOM     27  C   LIG    1        2.769   6.640  -3.373  0.00  0.00    +0.038 A 
ATOM     28  C   LIG    1        3.645   6.537  -4.440  0.00  0.00    +0.123 A 
ATOM     29  F   LIG    1        3.170   6.323  -5.686  0.00  0.00    -0.205 F 
ATOM     30  C   LIG    1        5.009   6.653  -4.229  0.00  0.00    +0.038 A 
ATOM     31  C   LIG    1        5.494   6.872  -2.953  0.00  0.00    +0.009 A 
ENDBRANCH  24  25
BRANCH  24  32
ATOM     32  C   LIG    1        4.601   8.511   0.033  0.00  0.00    +0.238 C 
ATOM     33  N   LIG    1        4.895   9.670  -0.589  0.00  0.00    -0.311 N 
ATOM     34  H   LIG    1        5.458   9.667  -1.378  0.00  0.00    +0.149 HD
ATOM     35  O   LIG    1        3.897   8.514   1.020  0.00  0.00    -0.273 OA
BRANCH  33  36
ATOM     36  C   LIG    1        4.363  10.934  -0.073  0.00  0.00    +0.073 C 
ATOM     37  C   LIG    1        2.956  11.160  -0.630  0.00  0.00    +0.022 C 
ATOM     38  C   LIG    1        2.401  12.480  -0.091  0.00  0.00    +0.002 C 
ATOM     39  C   LIG    1        3.312  13.631  -0.522  0.00  0.00    +0.000 C 
ATOM     40  C   LIG    1        4.718  13.404   0.035  0.00  0.00    +0.002 C 
ATOM     41  C   LIG    1        5.274  12.084  -0.504  0.00  0.00    +0.022 C 
ENDBRANCH  33  36
ENDBRANCH  24  32
ENDBRANCH   1  24
TORSDOF 11
