REMARK  Name = ZINC06845832
REMARK                            x       y       z     vdW  Elec       q    Type
REMARK                         _______ _______ _______ _____ _____    ______ ____
ROOT
ATOM      1  C   LIG    1       -0.677   2.708  -6.217  0.00  0.00    +0.000 C 
ENDROOT
BRANCH   1   2
ATOM      2  C   LIG    1        0.106   2.320  -7.473  0.00  0.00    -0.000 C 
BRANCH   2   3
ATOM      3  C   LIG    1       -0.634   2.827  -8.712  0.00  0.00    -0.000 C 
BRANCH   3   4
ATOM      4  C   LIG    1        0.150   2.440  -9.968  0.00  0.00    -0.000 C 
BRANCH   4   5
ATOM      5  C   LIG    1       -0.590   2.947 -11.208  0.00  0.00    -0.000 C 
BRANCH   5   6
ATOM      6  C   LIG    1        0.194   2.560 -12.463  0.00  0.00    -0.000 C 
BRANCH   6   7
ATOM      7  C   LIG    1       -0.546   3.066 -13.703  0.00  0.00    -0.000 C 
BRANCH   7   8
ATOM      8  C   LIG    1        0.237   2.679 -14.959  0.00  0.00    -0.000 C 
BRANCH   8  10
ATOM      9  C   LIG    1        0.281   2.799 -17.454  0.00  0.00    +0.004 C 
ATOM     10  C   LIG    1       -0.503   3.186 -16.198  0.00  0.00    -0.003 C 
ENDBRANCH   8  10
ENDBRANCH   7   8
ENDBRANCH   6   7
ENDBRANCH   5   6
ENDBRANCH   4   5
ENDBRANCH   3   4
ENDBRANCH   2   3
ENDBRANCH   1   2
BRANCH   1  11
ATOM     11  C   LIG    1        0.063   2.201  -4.978  0.00  0.00    +0.000 C 
BRANCH  11  12
ATOM     12  C   LIG    1       -0.721   2.588  -3.722  0.00  0.00    +0.000 C 
BRANCH  12  13
ATOM     13  C   LIG    1        0.019   2.081  -2.482  0.00  0.00    +0.002 C 
BRANCH  13  14
ATOM     14  C   LIG    1       -0.765   2.469  -1.227  0.00  0.00    +0.026 C 
BRANCH  14  15
ATOM     15  C   LIG    1       -0.025   1.962   0.013  0.00  0.00    +0.165 C 
ATOM     16 BR   LIG    1        0.002  -0.004   0.002  0.00  0.00    -0.076 Br
BRANCH  15  17
ATOM     17  C   LIG    1       -0.730   2.448   1.253  0.00  0.00    +0.318 C 
ATOM     18  O   LIG    1       -1.934   2.377   1.330  0.00  0.00    -0.250 OA
BRANCH  17  19
ATOM     19  O   LIG    1       -0.021   2.959   2.271  0.00  0.00    -0.480 OA
ATOM     20  H   LIG    1        0.912   3.014   2.211  0.00  0.00    +0.295 HD
ENDBRANCH  17  19
ENDBRANCH  15  17
ENDBRANCH  14  15
ENDBRANCH  13  14
ENDBRANCH  12  13
ENDBRANCH  11  12
ENDBRANCH   1  11
TORSDOF 15
