REMARK  Name = ZINC06244051
REMARK                            x       y       z     vdW  Elec       q    Type
REMARK                         _______ _______ _______ _____ _____    ______ ____
ROOT
ATOM      1  C   LIG    1        2.254  -4.298  -3.906  0.00  0.00    +0.037 A 
ATOM      2  C   LIG    1        2.770  -3.378  -4.824  0.00  0.00    +0.015 A 
ATOM      3  C   LIG    1        3.414  -3.825  -5.955  0.00  0.00    +0.025 A 
ATOM      4  C   LIG    1        3.552  -5.191  -6.186  0.00  0.00    +0.048 A 
ATOM      5  C   LIG    1        3.039  -6.109  -5.273  0.00  0.00    +0.025 A 
ATOM      6  C   LIG    1        2.399  -5.669  -4.137  0.00  0.00    +0.015 A 
ENDROOT
BRANCH   1   9
ATOM      7  N   LIG    1        1.425  -2.500  -2.470  0.00  0.00    -0.311 N 
ATOM      8  H   LIG    1        1.779  -1.861  -3.109  0.00  0.00    +0.149 HD
ATOM      9  C   LIG    1        1.564  -3.822  -2.692  0.00  0.00    +0.244 C 
ATOM     10  O   LIG    1        1.120  -4.623  -1.892  0.00  0.00    -0.270 OA
BRANCH   7  11
ATOM     11  C   LIG    1        0.739  -2.027  -1.265  0.00  0.00    +0.104 C 
BRANCH  11  12
ATOM     12  C   LIG    1        0.718  -0.497  -1.257  0.00  0.00    +0.018 C 
BRANCH  12  14
ATOM     13  C   LIG    1       -0.019   1.526   0.010  0.00  0.00    +0.004 C 
ATOM     14  C   LIG    1        0.002  -0.004   0.002  0.00  0.00    -0.002 C 
ENDBRANCH  12  14
ENDBRANCH  11  12
ENDBRANCH   7  11
ENDBRANCH   1   9
BRANCH   4  15
ATOM     15  N   LIG    1        4.203  -5.640  -7.330  0.00  0.00    -0.216 N 
ATOM     16  H   LIG    1        4.565  -4.991  -7.976  0.00  0.00    +0.174 HD
BRANCH  15  17
ATOM     17  S   LIG    1        4.367  -7.264  -7.606  0.00  0.00    +0.072 S 
ATOM     18  O   LIG    1        3.058  -7.775  -7.817  0.00  0.00    -0.150 OA
ATOM     19  O   LIG    1        5.225  -7.764  -6.589  0.00  0.00    -0.150 OA
BRANCH  17  20
ATOM     20  C   LIG    1        5.232  -7.449  -9.130  0.00  0.00    +0.108 A 
ATOM     21  C   LIG    1        4.530  -7.521 -10.318  0.00  0.00    +0.029 A 
ATOM     22  C   LIG    1        5.209  -7.666 -11.514  0.00  0.00    +0.002 A 
ATOM     23  C   LIG    1        6.589  -7.738 -11.521  0.00  0.00    +0.000 A 
ATOM     24  C   LIG    1        7.291  -7.665 -10.332  0.00  0.00    +0.002 A 
ATOM     25  C   LIG    1        6.613  -7.516  -9.137  0.00  0.00    +0.029 A 
ENDBRANCH  17  20
ENDBRANCH  15  17
ENDBRANCH   4  15
TORSDOF 7
