REMARK  Name = ZINC08144259
REMARK                            x       y       z     vdW  Elec       q    Type
REMARK                         _______ _______ _______ _____ _____    ______ ____
ROOT
ATOM      1  C   LIG    1       -0.018   1.503   0.010  0.00  0.00    +0.044 C 
ATOM      2  C   LIG    1        0.002  -0.004   0.002  0.00  0.00    -0.050 A 
ATOM      3  C   LIG    1        0.006  -0.686  -1.207  0.00  0.00    +0.005 A 
ATOM      4  C   LIG    1        0.025  -2.063  -1.236  0.00  0.00    +0.026 A 
ATOM      5  C   LIG    1        0.040  -2.780  -0.045  0.00  0.00    +0.050 A 
ATOM      6  C   LIG    1        0.036  -2.084   1.180  0.00  0.00    +0.005 A 
ATOM      7  C   LIG    1        0.055  -3.108   2.218  0.00  0.00    -0.005 A 
ATOM      8  C   LIG    1        0.069  -4.307   1.600  0.00  0.00    +0.025 A 
ATOM      9  C   LIG    1        0.094  -5.615   2.357  0.00  0.00    +0.069 C 
ATOM     10  C   LIG    1        0.504  -5.317   3.805  0.00  0.00    +0.090 C 
ATOM     11  N   LIG    1       -0.313  -4.215   4.333  0.00  0.00    -0.301 NA
ATOM     12  C   LIG    1       -0.215  -4.141   5.797  0.00  0.00    +0.105 C 
ATOM     13  C   LIG    1        0.057  -2.931   3.714  0.00  0.00    +0.121 C 
ATOM     14  N   LIG    1        0.059  -4.127   0.249  0.00  0.00    -0.343 N 
ATOM     15  C   LIG    1        0.023  -0.688   1.184  0.00  0.00    +0.013 A 
ENDROOT
BRANCH  14  16
ATOM     16  C   LIG    1        0.068  -5.205  -0.744  0.00  0.00    +0.127 C 
BRANCH  16  17
ATOM     17  C   LIG    1        1.513  -5.562  -1.097  0.00  0.00    +0.058 C 
BRANCH  17  18
ATOM     18  C   LIG    1        1.522  -6.670  -2.117  0.00  0.00    -0.028 A 
ATOM     19  C   LIG    1        1.535  -7.997  -1.713  0.00  0.00    +0.007 A 
ATOM     20  C   LIG    1        1.543  -8.983  -2.687  0.00  0.00    +0.023 A 
ATOM     21  C   LIG    1        1.537  -8.614  -4.019  0.00  0.00    +0.038 A 
ATOM     22  C   LIG    1        1.546  -9.678  -5.087  0.00  0.00    +0.065 C 
ATOM     23  N   LIG    1        1.525  -7.343  -4.367  0.00  0.00    -0.260 NA
ATOM     24  C   LIG    1        1.511  -6.378  -3.468  0.00  0.00    +0.114 A 
ENDBRANCH  17  18
ENDBRANCH  16  17
ENDBRANCH  14  16
TORSDOF 3
