REMARK  Name = ZINC08034993
REMARK                            x       y       z     vdW  Elec       q    Type
REMARK                         _______ _______ _______ _____ _____    ______ ____
ROOT
ATOM      1  C   LIG    1       -0.155  -2.858   3.033  0.00  0.00    +0.000 C 
ENDROOT
BRANCH   1   2
ATOM      2  C   LIG    1       -0.411  -1.362   3.225  0.00  0.00    +0.004 C 
BRANCH   2   3
ATOM      3  C   LIG    1       -0.943  -0.764   1.921  0.00  0.00    +0.027 C 
BRANCH   3   5
ATOM      4  C   LIG    1       -0.658   1.577   1.289  0.00  0.00    -0.031 C 
ATOM      5  C   LIG    1       -1.196   0.709   2.110  0.00  0.00    -0.031 C 
BRANCH   4   6
ATOM      6  C   LIG    1        0.070   1.099   0.059  0.00  0.00    +0.027 C 
BRANCH   6   7
ATOM      7  C   LIG    1       -0.486   1.814  -1.173  0.00  0.00    +0.004 C 
BRANCH   7   8
ATOM      8  C   LIG    1        0.254   1.329  -2.422  0.00  0.00    +0.000 C 
BRANCH   8   9
ATOM      9  C   LIG    1       -0.303   2.043  -3.655  0.00  0.00    +0.000 C 
BRANCH   9  10
ATOM     10  C   LIG    1        0.436   1.558  -4.903  0.00  0.00    -0.000 C 
BRANCH  10  11
ATOM     11  C   LIG    1       -0.120   2.273  -6.136  0.00  0.00    -0.000 C 
BRANCH  11  13
ATOM     12  C   LIG    1        0.062   2.502  -8.617  0.00  0.00    +0.004 C 
ATOM     13  C   LIG    1        0.620   1.788  -7.384  0.00  0.00    -0.003 C 
ENDBRANCH  11  13
ENDBRANCH  10  11
ENDBRANCH   9  10
ENDBRANCH   8   9
ENDBRANCH   7   8
ENDBRANCH   6   7
ENDBRANCH   4   6
ENDBRANCH   3   5
ENDBRANCH   2   3
ENDBRANCH   1   2
BRANCH   1  14
ATOM     14  C   LIG    1        0.377  -3.456   4.337  0.00  0.00    +0.000 C 
BRANCH  14  15
ATOM     15  C   LIG    1        0.634  -4.952   4.145  0.00  0.00    +0.000 C 
BRANCH  15  16
ATOM     16  C   LIG    1        1.166  -5.550   5.449  0.00  0.00    +0.009 C 
BRANCH  16  17
ATOM     17  C   LIG    1        1.422  -7.046   5.257  0.00  0.00    +0.096 C 
BRANCH  17  18
ATOM     18  C   LIG    1        1.946  -7.634   6.542  0.00  0.00    +0.213 C 
ATOM     19  N   LIG    1        2.245  -8.947   6.609  0.00  0.00    -0.313 N 
ATOM     20  H   LIG    1        2.122  -9.513   5.831  0.00  0.00    +0.149 HD
ATOM     21  O   LIG    1        2.099  -6.927   7.515  0.00  0.00    -0.276 OA
BRANCH  19  22
ATOM     22  C   LIG    1        2.754  -9.519   7.858  0.00  0.00    +0.132 C 
BRANCH  22  23
ATOM     23  C   LIG    1        3.010 -11.015   7.666  0.00  0.00    +0.174 C 
BRANCH  23  24
ATOM     24  O   LIG    1        4.057 -11.200   6.711  0.00  0.00    -0.393 OA
ATOM     25  H   LIG    1        4.274 -12.127   6.539  0.00  0.00    +0.209 HD
ENDBRANCH  23  24
ENDBRANCH  22  23
ENDBRANCH  19  22
ENDBRANCH  17  18
ENDBRANCH  16  17
ENDBRANCH  15  16
ENDBRANCH  14  15
ENDBRANCH   1  14
TORSDOF 18
