REMARK  Name = ZINC08462000
REMARK                            x       y       z     vdW  Elec       q    Type
REMARK                         _______ _______ _______ _____ _____    ______ ____
ROOT
ATOM      1  C   LIG    1       -3.601   3.024   0.772  0.00  0.00    +0.006 C 
ATOM      2  C   LIG    1       -2.553   3.869   0.045  0.00  0.00    +0.051 C 
ENDROOT
BRANCH   2   3
ATOM      3  C   LIG    1       -1.238   3.133   0.030  0.00  0.00    -0.049 A 
ATOM      4  C   LIG    1       -1.219   1.751   0.017  0.00  0.00    +0.003 A 
ATOM      5  C   LIG    1       -0.013   1.076   0.008  0.00  0.00    +0.000 A 
ATOM      6  C   LIG    1        1.175   1.783   0.000  0.00  0.00    +0.000 A 
ATOM      7  C   LIG    1        1.156   3.165   0.008  0.00  0.00    +0.000 A 
ATOM      8  C   LIG    1       -0.050   3.840   0.022  0.00  0.00    +0.003 A 
ENDBRANCH   2   3
BRANCH   2   9
ATOM      9  N   LIG    1       -2.380   5.143   0.765  0.00  0.00    +0.391 N 
ATOM     10  H   LIG    1       -2.041   4.951   1.715  0.00  0.00    -0.088 HD
ATOM     11  H   LIG    1       -3.270   5.635   0.823  0.00  0.00    -0.088 HD
ATOM     12  H   LIG    1       -1.700   5.728   0.281  0.00  0.00    -0.088 HD
ENDBRANCH   2   9
BRANCH   2  13
ATOM     13  C   LIG    1       -3.004   4.120  -1.370  0.00  0.00    +0.297 C 
ATOM     14  O   LIG    1       -2.624   3.401  -2.263  0.00  0.00    -0.252 OA
BRANCH  13  15
ATOM     15  O   LIG    1       -3.829   5.145  -1.639  0.00  0.00    -0.481 OA
ATOM     16  H   LIG    1       -4.124   5.703  -0.947  0.00  0.00    +0.295 HD
ENDBRANCH  13  15
ENDBRANCH   2  13
TORSDOF 4
