REMARK  Name = ZINC06511204
REMARK                            x       y       z     vdW  Elec       q    Type
REMARK                         _______ _______ _______ _____ _____    ______ ____
ROOT
ATOM      1  N   LIG    1        5.894   4.699  -0.575  0.00  0.00    -0.281 N 
ATOM      2  C   LIG    1        6.993   3.932  -0.720  0.00  0.00    +0.264 C 
ATOM      3  O   LIG    1        8.010   4.409  -1.188  0.00  0.00    -0.268 OA
ENDROOT
BRANCH   2   4
ATOM      4  C   LIG    1        6.963   2.524  -0.315  0.00  0.00    +0.102 A 
ATOM      5  C   LIG    1        8.028   1.646  -0.350  0.00  0.00    +0.033 A 
ATOM      6  C   LIG    1        7.572   0.416   0.118  0.00  0.00    +0.028 A 
ATOM      7  C   LIG    1        6.237   0.557   0.432  0.00  0.00    +0.047 A 
ATOM      8  N   LIG    1        5.866   1.842   0.162  0.00  0.00    -0.351 N 
ATOM      9  H   LIG    1        4.979   2.213   0.287  0.00  0.00    +0.166 HD
BRANCH   7  10
ATOM     10  C   LIG    1        5.357  -0.504   0.966  0.00  0.00    -0.002 A 
ATOM     11  C   LIG    1        4.046  -0.204   1.340  0.00  0.00    +0.010 A 
ATOM     12  C   LIG    1        3.230  -1.199   1.838  0.00  0.00    +0.001 A 
ATOM     13  C   LIG    1        3.708  -2.491   1.965  0.00  0.00    +0.000 A 
ATOM     14  C   LIG    1        5.006  -2.795   1.596  0.00  0.00    +0.001 A 
ATOM     15  C   LIG    1        5.833  -1.809   1.097  0.00  0.00    +0.010 A 
ENDBRANCH   7  10
ENDBRANCH   2   4
BRANCH   1  16
ATOM     16  C   LIG    1        4.717   4.167   0.117  0.00  0.00    +0.107 C 
BRANCH  16  17
ATOM     17  C   LIG    1        3.871   3.355  -0.866  0.00  0.00    +0.000 C 
BRANCH  17  18
ATOM     18  C   LIG    1        2.611   2.851  -0.159  0.00  0.00    -0.077 C 
BRANCH  18  19
ATOM     19  N   LIG    1        1.909   1.907  -1.054  0.00  0.00    +0.379 N 
ATOM     20  H   LIG    1        2.588   1.231  -1.425  0.00  0.00    -0.082 HD
BRANCH  19  22
ATOM     21  C   LIG    1        0.312   0.059  -1.185  0.00  0.00    -0.017 C 
ATOM     22  C   LIG    1        0.867   1.178  -0.302  0.00  0.00    -0.082 C 
ENDBRANCH  19  22
BRANCH  19  23
ATOM     23  C   LIG    1        1.298   2.641  -2.182  0.00  0.00    -0.082 C 
ATOM     24  C   LIG    1        0.275   3.657  -1.670  0.00  0.00    -0.017 C 
ENDBRANCH  19  23
ENDBRANCH  18  19
ENDBRANCH  17  18
ENDBRANCH  16  17
ENDBRANCH   1  16
BRANCH   1  25
ATOM     25  C   LIG    1        5.876   6.063  -1.109  0.00  0.00    +0.192 C 
BRANCH  25  26
ATOM     26  C   LIG    1        4.873   6.151  -2.230  0.00  0.00    -0.018 A 
ATOM     27  C   LIG    1        3.527   5.983  -1.967  0.00  0.00    +0.009 A 
ATOM     28  C   LIG    1        2.606   6.069  -2.994  0.00  0.00    +0.038 A 
ATOM     29  C   LIG    1        3.033   6.311  -4.288  0.00  0.00    +0.123 A 
ATOM     30  F   LIG    1        2.134   6.389  -5.294  0.00  0.00    -0.205 F 
ATOM     31  C   LIG    1        4.383   6.473  -4.551  0.00  0.00    +0.038 A 
ATOM     32  C   LIG    1        5.302   6.393  -3.522  0.00  0.00    +0.009 A 
ENDBRANCH  25  26
BRANCH  25  33
ATOM     33  C   LIG    1        5.492   7.025  -0.015  0.00  0.00    +0.238 C 
ATOM     34  N   LIG    1        5.442   8.348  -0.268  0.00  0.00    -0.311 N 
ATOM     35  H   LIG    1        5.654   8.681  -1.154  0.00  0.00    +0.149 HD
ATOM     36  O   LIG    1        5.228   6.609   1.094  0.00  0.00    -0.273 OA
BRANCH  34  37
ATOM     37  C   LIG    1        5.069   9.284   0.796  0.00  0.00    +0.073 C 
ATOM     38  C   LIG    1        3.544   9.390   0.870  0.00  0.00    +0.022 C 
ATOM     39  C   LIG    1        3.154  10.367   1.981  0.00  0.00    +0.002 C 
ATOM     40  C   LIG    1        3.747  11.745   1.679  0.00  0.00    +0.000 C 
ATOM     41  C   LIG    1        5.271  11.639   1.605  0.00  0.00    +0.002 C 
ATOM     42  C   LIG    1        5.662  10.662   0.494  0.00  0.00    +0.022 C 
ENDBRANCH  34  37
ENDBRANCH  25  33
ENDBRANCH   1  25
TORSDOF 12
