REMARK  Name = ZINC06625775
REMARK                            x       y       z     vdW  Elec       q    Type
REMARK                         _______ _______ _______ _____ _____    ______ ____
ROOT
ATOM      1  N   LIG    1       -0.076   1.117  -2.430  0.00  0.00    -0.326 N 
ATOM      2  H   LIG    1        0.818   0.484  -2.336  0.00  0.00    +0.148 HD
ENDROOT
BRANCH   1   5
ATOM      3  N   LIG    1        0.061   1.031  -4.745  0.00  0.00    -0.368 N 
ATOM      4  H   LIG    1        1.006   0.476  -4.654  0.00  0.00    +0.161 HD
ATOM      5  C   LIG    1       -0.550   1.459  -3.675  0.00  0.00    +0.125 C 
BRANCH   5   6
ATOM      6  S   LIG    1       -1.983   2.474  -3.825  0.00  0.00    -0.110 S 
ATOM      7  H   LIG    1       -2.260   2.675  -5.141  0.00  0.00    +0.110 HD
ENDBRANCH   5   6
BRANCH   3   8
ATOM      8  C   LIG    1       -0.512   1.290  -6.069  0.00  0.00    +0.114 C 
BRANCH   8  10
ATOM      9  C   LIG    1       -0.267   0.858  -8.517  0.00  0.00    +0.005 C 
ATOM     10  C   LIG    1        0.331   0.588  -7.135  0.00  0.00    +0.018 C 
ENDBRANCH   8  10
ENDBRANCH   3   8
ENDBRANCH   1   5
BRANCH   1  11
ATOM     11  C   LIG    1       -0.763   1.598  -1.228  0.00  0.00    +0.105 C 
BRANCH  11  12
ATOM     12  C   LIG    1       -0.037   1.079   0.015  0.00  0.00    +0.040 C 
BRANCH  12  13
ATOM     13  C   LIG    1       -0.754   1.581   1.270  0.00  0.00    +0.124 C 
BRANCH  13  14
ATOM     14  N   LIG    1       -0.060   1.084   2.461  0.00  0.00    -0.338 N 
ATOM     15  C   LIG    1       -0.315  -0.088   3.120  0.00  0.00    +0.104 A 
ATOM     16  C   LIG    1        0.551  -0.153   4.149  0.00  0.00    +0.101 A 
ATOM     17  N   LIG    1        1.308   0.954   4.125  0.00  0.00    -0.352 N 
ATOM     18  H   LIG    1        2.085   1.106   4.889  0.00  0.00    +0.166 HD
ATOM     19  C   LIG    1        0.948   1.699   3.116  0.00  0.00    +0.173 A 
ENDBRANCH  13  14
ENDBRANCH  12  13
ENDBRANCH  11  12
ENDBRANCH   1  11
TORSDOF 8
