REMARK  Name = ZINC08383183
REMARK                            x       y       z     vdW  Elec       q    Type
REMARK                         _______ _______ _______ _____ _____    ______ ____
ROOT
ATOM      1  O   LIG    1        1.492   2.033  -0.001  0.00  0.00    -0.357 OA
ENDROOT
BRANCH   1   2
ATOM      2  C   LIG    1        2.295   1.604  -0.994  0.00  0.00    +0.405 C 
ATOM      3  N   LIG    1        3.571   2.033  -1.062  0.00  0.00    -0.295 N 
ATOM      4  H   LIG    1        4.149   1.724  -1.777  0.00  0.00    +0.148 HD
ATOM      5  H   LIG    1        3.911   2.650  -0.395  0.00  0.00    +0.148 HD
ATOM      6  O   LIG    1        1.868   0.831  -1.829  0.00  0.00    -0.226 OA
ENDBRANCH   1   2
BRANCH   1   7
ATOM      7  P   LIG    1       -0.018   1.476   0.010  0.00  0.00    +0.531 P 
ATOM      8  O   LIG    1        0.002  -0.004   0.002  0.00  0.00    -0.215 OA
BRANCH   7   9
ATOM      9  O   LIG    1       -0.772   1.995   1.335  0.00  0.00    -0.293 OA
ATOM     10  H   LIG    1       -0.302   1.674   2.121  0.00  0.00    +0.223 HD
ENDBRANCH   7   9
BRANCH   7  11
ATOM     11  O   LIG    1       -0.797   2.009  -1.294  0.00  0.00    -0.293 OA
ATOM     12  H   LIG    1       -0.343   1.696  -2.092  0.00  0.00    +0.223 HD
ENDBRANCH   7  11
ENDBRANCH   1   7
TORSDOF 4
