REMARK  Name = ZINC07653967
REMARK                            x       y       z     vdW  Elec       q    Type
REMARK                         _______ _______ _______ _____ _____    ______ ____
ROOT
ATOM      1  N   LIG    1        6.011  -1.980  -0.762  0.00  0.00    +0.383 N 
ATOM      2  H   LIG    1        6.034  -1.004  -0.505  0.00  0.00    -0.086 HD
ATOM      3  H   LIG    1        5.862  -2.063  -1.756  0.00  0.00    -0.086 HD
ENDROOT
BRANCH   1   4
ATOM      4  C   LIG    1        4.918  -2.649  -0.044  0.00  0.00    -0.034 C 
BRANCH   4  12
ATOM      5  C   LIG    1       -0.017   1.378   0.010  0.00  0.00    +0.004 A 
ATOM      6  C   LIG    1        1.170   2.088   0.002  0.00  0.00    +0.004 A 
ATOM      7  C   LIG    1        2.378   1.418  -0.012  0.00  0.00    +0.049 A 
ATOM      8  C   LIG    1        2.404   0.031  -0.019  0.00  0.00    +0.162 A 
ATOM      9  C   LIG    1        1.212  -0.683  -0.014  0.00  0.00    +0.162 A 
ATOM     10  O   LIG    1        1.214  -2.043  -0.029  0.00  0.00    -0.485 OA
ATOM     11  C   LIG    1        2.441  -2.689   0.331  0.00  0.00    +0.271 C 
ATOM     12  C   LIG    1        3.587  -1.993  -0.416  0.00  0.00    +0.194 C 
ATOM     13  O   LIG    1        3.602  -0.615  -0.029  0.00  0.00    -0.484 OA
ATOM     14  C   LIG    1        0.002  -0.004   0.002  0.00  0.00    +0.049 A 
ENDBRANCH   4  12
ENDBRANCH   1   4
BRANCH   1  15
ATOM     15  C   LIG    1        7.290  -2.610  -0.405  0.00  0.00    -0.047 C 
BRANCH  15  16
ATOM     16  C   LIG    1        8.428  -1.912  -1.152  0.00  0.00    +0.135 C 
BRANCH  16  17
ATOM     17  O   LIG    1        8.534  -0.560  -0.703  0.00  0.00    -0.390 OA
ATOM     18  H   LIG    1        8.718  -0.473   0.243  0.00  0.00    +0.210 HD
ENDBRANCH  16  17
BRANCH  16  19
ATOM     19  C   LIG    1        9.742  -2.646  -0.878  0.00  0.00    +0.258 C 
BRANCH  19  20
ATOM     20  O   LIG    1       10.784  -2.067  -1.666  0.00  0.00    -0.487 OA
BRANCH  20  21
ATOM     21  C   LIG    1       12.026  -2.606  -1.540  0.00  0.00    +0.156 A 
ATOM     22  C   LIG    1       12.236  -3.674  -0.681  0.00  0.00    +0.048 A 
ATOM     23  C   LIG    1       13.498  -4.220  -0.554  0.00  0.00    +0.004 A 
ATOM     24  C   LIG    1       14.554  -3.704  -1.283  0.00  0.00    +0.003 A 
ATOM     25  C   LIG    1       14.349  -2.639  -2.141  0.00  0.00    +0.042 A 
ATOM     26  C   LIG    1       13.086  -2.092  -2.277  0.00  0.00    +0.165 A 
ATOM     27  F   LIG    1       12.884  -1.055  -3.119  0.00  0.00    -0.202 F 
ENDBRANCH  20  21
ENDBRANCH  19  20
ENDBRANCH  16  19
ENDBRANCH  15  16
ENDBRANCH   1  15
TORSDOF 8
