REMARK  Name = ZINC06716417
REMARK                            x       y       z     vdW  Elec       q    Type
REMARK                         _______ _______ _______ _____ _____    ______ ____
ROOT
ATOM      1  N   LIG    1        0.884   2.118   0.174  0.00  0.00    -0.276 N 
ATOM      2  C   LIG    1        2.159   1.694   0.009  0.00  0.00    +0.263 A 
ATOM      3  C   LIG    1        2.390   0.245  -0.056  0.00  0.00    +0.065 A 
ATOM      4  C   LIG    1        3.666  -0.291  -0.224  0.00  0.00    +0.015 A 
ATOM      5  C   LIG    1        3.824  -1.649  -0.278  0.00  0.00    +0.001 A 
ATOM      6  C   LIG    1        2.729  -2.496  -0.166  0.00  0.00    +0.002 A 
ATOM      7  C   LIG    1        1.468  -1.997   0.000  0.00  0.00    +0.028 A 
ATOM      8  C   LIG    1        1.273  -0.614   0.059  0.00  0.00    +0.080 A 
ATOM      9  N   LIG    1        0.042  -0.076   0.221  0.00  0.00    -0.216 NA
ATOM     10  O   LIG    1        3.080   2.485  -0.084  0.00  0.00    -0.267 OA
ATOM     11  C   LIG    1       -0.138   1.220   0.275  0.00  0.00    +0.202 A 
ENDROOT
BRANCH  11  12
ATOM     12  N   LIG    1       -1.414   1.697   0.436  0.00  0.00    -0.302 N 
ATOM     13  C   LIG    1       -1.985   2.115  -0.850  0.00  0.00    +0.108 C 
ATOM     14  C   LIG    1       -3.347   2.774  -0.615  0.00  0.00    +0.017 C 
ATOM     15  C   LIG    1       -4.278   1.776   0.077  0.00  0.00    -0.013 C 
ATOM     16  C   LIG    1       -3.638   1.319   1.391  0.00  0.00    -0.057 C 
ATOM     17  C   LIG    1       -2.268   0.702   1.098  0.00  0.00    +0.092 C 
BRANCH  16  18
ATOM     18  N   LIG    1       -4.486   0.313   2.056  0.00  0.00    +0.381 N 
ATOM     19  H   LIG    1       -4.053   0.043   2.947  0.00  0.00    -0.090 HD
ATOM     20  H   LIG    1       -4.575  -0.513   1.467  0.00  0.00    -0.090 HD
ATOM     21  H   LIG    1       -5.410   0.701   2.239  0.00  0.00    -0.090 HD
ENDBRANCH  16  18
ENDBRANCH  11  12
BRANCH   1  22
ATOM     22  C   LIG    1        0.599   3.553   0.243  0.00  0.00    +0.164 C 
BRANCH  22  27
ATOM     23  C   LIG    1       -0.831   4.393   3.636  0.00  0.00    +0.000 A 
ATOM     24  C   LIG    1        0.303   4.752   4.343  0.00  0.00    +0.001 A 
ATOM     25  C   LIG    1        1.539   4.727   3.731  0.00  0.00    +0.019 A 
ATOM     26  C   LIG    1        1.644   4.331   2.396  0.00  0.00    +0.057 A 
ATOM     27  C   LIG    1        0.495   3.975   1.686  0.00  0.00    -0.010 A 
ATOM     28  C   LIG    1       -0.734   4.006   2.312  0.00  0.00    +0.006 A 
BRANCH  26  29
ATOM     29  C   LIG    1        2.925   4.296   1.755  0.00  0.00    +0.099 C 
ATOM     30  N   LIG    1        3.940   4.269   1.247  0.00  0.00    -0.191 NA
ENDBRANCH  26  29
ENDBRANCH  22  27
ENDBRANCH   1  22
TORSDOF 5
