REMARK  Name = ZINC06717791
REMARK                            x       y       z     vdW  Elec       q    Type
REMARK                         _______ _______ _______ _____ _____    ______ ____
ROOT
ATOM      1  C   LIG    1       -2.074   5.557  -1.607  0.00  0.00    -0.005 A 
ATOM      2  C   LIG    1       -2.343   4.186  -1.728  0.00  0.00    +0.029 A 
ATOM      3  C   LIG    1       -3.340   3.770  -2.582  0.00  0.00    +0.113 A 
ATOM      4  N   LIG    1       -4.040   4.641  -3.284  0.00  0.00    -0.240 NA
ATOM      5  C   LIG    1       -3.823   5.945  -3.204  0.00  0.00    +0.126 A 
ATOM      6  C   LIG    1       -2.841   6.450  -2.363  0.00  0.00    +0.053 A 
ENDROOT
BRANCH   1  10
ATOM      7  C   LIG    1        0.607   7.269   1.001  0.00  0.00    +0.079 A 
ATOM      8  N   LIG    1        1.000   6.152   0.438  0.00  0.00    -0.243 NA
ATOM      9  C   LIG    1        0.234   5.498  -0.417  0.00  0.00    +0.086 A 
ATOM     10  C   LIG    1       -1.014   6.046  -0.704  0.00  0.00    +0.047 A 
ATOM     11  S   LIG    1       -0.976   7.503   0.329  0.00  0.00    -0.071 S 
BRANCH   9  12
ATOM     12  C   LIG    1        0.686   4.236  -1.048  0.00  0.00    +0.002 A 
ATOM     13  C   LIG    1        0.307   3.933  -2.356  0.00  0.00    +0.010 A 
ATOM     14  C   LIG    1        0.735   2.759  -2.940  0.00  0.00    +0.001 A 
ATOM     15  C   LIG    1        1.531   1.878  -2.228  0.00  0.00    +0.003 A 
ATOM     16  C   LIG    1        1.911   2.174  -0.932  0.00  0.00    -0.050 A 
ATOM     17  C   LIG    1        2.783   1.213  -0.166  0.00  0.00    +0.044 C 
ATOM     18  C   LIG    1        1.493   3.348  -0.338  0.00  0.00    +0.013 A 
ENDBRANCH   9  12
BRANCH   7  20
ATOM     19  C   LIG    1        2.171   9.179   1.233  0.00  0.00    +0.011 C 
ATOM     20  C   LIG    1        1.347   8.134   1.988  0.00  0.00    +0.059 C 
ENDBRANCH   7  20
ENDBRANCH   1  10
BRANCH   5  21
ATOM     21  N   LIG    1       -4.592   6.821  -3.968  0.00  0.00    -0.266 N 
ATOM     22  H   LIG    1       -4.388   7.769  -3.972  0.00  0.00    +0.157 HD
ATOM     23  C   LIG    1       -5.620   6.350  -4.702  0.00  0.00    +0.249 C 
ATOM     24  O   LIG    1       -5.818   5.153  -4.772  0.00  0.00    -0.270 OA
BRANCH  23  25
ATOM     25  C   LIG    1       -6.506   7.289  -5.421  0.00  0.00    +0.037 A 
ATOM     26  C   LIG    1       -6.284   8.665  -5.337  0.00  0.00    +0.013 A 
ATOM     27  C   LIG    1       -7.112   9.536  -6.015  0.00  0.00    +0.001 A 
ATOM     28  C   LIG    1       -8.166   9.049  -6.767  0.00  0.00    +0.000 A 
ATOM     29  C   LIG    1       -8.395   7.687  -6.850  0.00  0.00    +0.001 A 
ATOM     30  C   LIG    1       -7.571   6.805  -6.181  0.00  0.00    +0.013 A 
ENDBRANCH  23  25
ENDBRANCH   5  21
TORSDOF 5
