REMARK  Name = ZINC05934789
REMARK                            x       y       z     vdW  Elec       q    Type
REMARK                         _______ _______ _______ _____ _____    ______ ____
ROOT
ATOM      1  C   LIG    1       -1.220   1.744   0.017  0.00  0.00    +0.000 A 
ATOM      2  C   LIG    1       -1.239   3.126   0.030  0.00  0.00    +0.000 A 
ATOM      3  C   LIG    1       -0.052   3.828   0.026  0.00  0.00    +0.004 A 
ATOM      4  C   LIG    1        1.165   3.157   0.013  0.00  0.00    -0.046 A 
ATOM      5  C   LIG    1        1.184   1.781   0.000  0.00  0.00    -0.044 A 
ATOM      6  C   LIG    1        2.465   0.989  -0.031  0.00  0.00    +0.034 C 
ATOM      7  C   LIG    1        3.646   1.860   0.393  0.00  0.00    -0.011 C 
ATOM      8  C   LIG    1        3.618   3.150  -0.436  0.00  0.00    -0.071 C 
ATOM      9  C   LIG    1        2.422   3.986   0.016  0.00  0.00    +0.019 C 
ATOM     10  C   LIG    1       -0.013   1.076   0.008  0.00  0.00    +0.004 A 
ENDROOT
BRANCH   8  11
ATOM     11  N   LIG    1        4.876   3.888  -0.230  0.00  0.00    +0.380 N 
ATOM     12  H   LIG    1        5.660   3.320  -0.571  0.00  0.00    -0.090 HD
ATOM     13  H   LIG    1        5.011   4.079   0.761  0.00  0.00    -0.090 HD
ATOM     14  H   LIG    1        4.854   4.767  -0.744  0.00  0.00    -0.090 HD
ENDBRANCH   8  11
TORSDOF 1
