REMARK  Name = ZINC06481530
REMARK                            x       y       z     vdW  Elec       q    Type
REMARK                         _______ _______ _______ _____ _____    ______ ____
ROOT
ATOM      1  N   LIG    1        1.341   2.219   3.376  0.00  0.00    -0.285 N 
ATOM      2  C   LIG    1        2.178   1.168   3.270  0.00  0.00    +0.264 C 
ATOM      3  O   LIG    1        1.783   0.121   2.792  0.00  0.00    -0.268 OA
ENDROOT
BRANCH   2   4
ATOM      4  C   LIG    1        3.565   1.286   3.730  0.00  0.00    +0.102 A 
ATOM      5  C   LIG    1        4.469   0.251   3.857  0.00  0.00    +0.033 A 
ATOM      6  C   LIG    1        5.665   0.795   4.323  0.00  0.00    +0.028 A 
ATOM      7  C   LIG    1        5.476   2.152   4.474  0.00  0.00    +0.047 A 
ATOM      8  N   LIG    1        4.197   2.451   4.106  0.00  0.00    -0.351 N 
ATOM      9  H   LIG    1        3.798   3.335   4.111  0.00  0.00    +0.166 HD
BRANCH   7  10
ATOM     10  C   LIG    1        6.489   3.119   4.946  0.00  0.00    -0.002 A 
ATOM     11  C   LIG    1        6.170   4.474   5.048  0.00  0.00    +0.010 A 
ATOM     12  C   LIG    1        7.118   5.371   5.495  0.00  0.00    +0.001 A 
ATOM     13  C   LIG    1        8.387   4.931   5.830  0.00  0.00    +0.000 A 
ATOM     14  C   LIG    1        8.711   3.590   5.726  0.00  0.00    +0.001 A 
ATOM     15  C   LIG    1        7.770   2.682   5.286  0.00  0.00    +0.010 A 
ENDBRANCH   7  10
ENDBRANCH   2   4
BRANCH   1  16
ATOM     16  C   LIG    1       -0.024   2.124   2.852  0.00  0.00    +0.162 C 
BRANCH  16  17
ATOM     17  C   LIG    1       -1.008   2.346   3.972  0.00  0.00    +0.234 C 
ATOM     18  N   LIG    1       -2.332   2.301   3.724  0.00  0.00    -0.311 N 
ATOM     19  H   LIG    1       -2.651   2.126   2.825  0.00  0.00    +0.149 HD
ATOM     20  O   LIG    1       -0.608   2.565   5.096  0.00  0.00    -0.274 OA
BRANCH  18  21
ATOM     21  C   LIG    1       -3.288   2.517   4.813  0.00  0.00    +0.073 C 
ATOM     22  C   LIG    1       -3.530   1.197   5.548  0.00  0.00    +0.022 C 
ATOM     23  C   LIG    1       -4.529   1.422   6.685  0.00  0.00    +0.002 C 
ATOM     24  C   LIG    1       -5.851   1.935   6.108  0.00  0.00    +0.000 C 
ATOM     25  C   LIG    1       -5.609   3.254   5.373  0.00  0.00    +0.002 C 
ATOM     26  C   LIG    1       -4.610   3.029   4.236  0.00  0.00    +0.022 C 
ENDBRANCH  18  21
ENDBRANCH  16  17
BRANCH  16  27
ATOM     27  C   LIG    1       -0.231   3.188   1.773  0.00  0.00    +0.032 C 
BRANCH  27  28
ATOM     28  C   LIG    1        0.681   2.890   0.581  0.00  0.00    +0.002 C 
BRANCH  28  30
ATOM     29  C   LIG    1        1.386   3.656  -1.690  0.00  0.00    +0.004 C 
ATOM     30  C   LIG    1        0.474   3.954  -0.499  0.00  0.00    -0.003 C 
ENDBRANCH  28  30
ENDBRANCH  27  28
ENDBRANCH  16  27
ENDBRANCH   1  16
BRANCH   1  31
ATOM     31  C   LIG    1        1.796   3.457   4.015  0.00  0.00    +0.107 C 
BRANCH  31  32
ATOM     32  C   LIG    1        2.357   4.403   2.951  0.00  0.00    +0.000 C 
BRANCH  32  33
ATOM     33  C   LIG    1        2.694   5.750   3.594  0.00  0.00    -0.077 C 
BRANCH  33  34
ATOM     34  N   LIG    1        3.113   6.691   2.534  0.00  0.00    +0.379 N 
ATOM     35  H   LIG    1        3.786   6.220   1.917  0.00  0.00    -0.082 HD
BRANCH  34  36
ATOM     36  C   LIG    1        3.760   7.875   3.136  0.00  0.00    -0.082 C 
ATOM     37  C   LIG    1        5.192   7.505   3.527  0.00  0.00    -0.017 C 
ENDBRANCH  34  36
BRANCH  34  38
ATOM     38  C   LIG    1        1.940   7.107   1.736  0.00  0.00    -0.082 C 
ATOM     39  C   LIG    1        2.427   7.895   0.518  0.00  0.00    -0.017 C 
ENDBRANCH  34  38
ENDBRANCH  33  34
ENDBRANCH  32  33
ENDBRANCH  31  32
ENDBRANCH   1  31
TORSDOF 14
