REMARK  Name = ZINC05921125
REMARK                            x       y       z     vdW  Elec       q    Type
REMARK                         _______ _______ _______ _____ _____    ______ ____
ROOT
ATOM      1  C   LIG    1       -1.848  -0.591   0.917  0.00  0.00    +0.012 C 
ATOM      2  C   LIG    1       -2.092   0.902   1.148  0.00  0.00    -0.018 C 
ATOM      3  C   LIG    1       -2.915   1.468   0.008  0.00  0.00    +0.008 C 
ATOM      4  C   LIG    1       -2.175   1.135  -1.300  0.00  0.00    +0.005 C 
ATOM      5  C   LIG    1       -0.758   1.695  -1.294  0.00  0.00    +0.000 C 
ATOM      6  C   LIG    1        0.033   1.216  -0.064  0.00  0.00    -0.004 C 
ATOM      7  C   LIG    1        1.433   1.827  -0.085  0.00  0.00    +0.006 C 
ATOM      8  C   LIG    1        2.166   1.407  -1.364  0.00  0.00    +0.023 C 
ATOM      9  C   LIG    1        1.368   1.887  -2.574  0.00  0.00    +0.079 C 
ATOM     10  N   LIG    1        2.047   1.579  -3.822  0.00  0.00    -0.312 N 
ATOM     11  H   LIG    1        3.016   1.628  -3.844  0.00  0.00    +0.149 HD
ATOM     12  C   LIG    1        1.403   1.230  -4.939  0.00  0.00    +0.213 C 
ATOM     13  O   LIG    1        2.057   1.061  -5.946  0.00  0.00    -0.276 OA
ATOM     14  C   LIG    1       -0.083   1.036  -5.022  0.00  0.00    +0.096 C 
ATOM     15  C   LIG    1       -0.775   1.671  -3.812  0.00  0.00    +0.018 C 
ATOM     16  C   LIG    1       -0.020   1.244  -2.552  0.00  0.00    -0.010 C 
ATOM     17  C   LIG    1        0.124  -0.279  -2.536  0.00  0.00    +0.013 C 
ATOM     18  C   LIG    1       -2.634   1.123   2.556  0.00  0.00    +0.081 C 
ATOM     19  C   LIG    1       -1.383   1.271   3.458  0.00  0.00    +0.013 C 
ATOM     20  C   LIG    1       -0.152   1.216   2.511  0.00  0.00    +0.005 C 
ATOM     21  C   LIG    1       -0.723   1.659   1.173  0.00  0.00    -0.001 C 
ENDROOT
BRANCH  18  22
ATOM     22  C   LIG    1       -3.457  -0.062   2.992  0.00  0.00    +0.217 C 
ATOM     23  N   LIG    1       -4.765  -0.128   2.674  0.00  0.00    -0.310 N 
ATOM     24  H   LIG    1       -5.177   0.588   2.165  0.00  0.00    +0.149 HD
ATOM     25  O   LIG    1       -2.942  -0.957   3.628  0.00  0.00    -0.275 OA
BRANCH  23  26
ATOM     26  C   LIG    1       -5.564  -1.280   3.097  0.00  0.00    +0.026 C 
ATOM     27  C   LIG    1       -4.974  -2.558   2.498  0.00  0.00    +0.031 C 
ATOM     28  C   LIG    1       -7.005  -1.107   2.611  0.00  0.00    +0.031 C 
ATOM     29  C   LIG    1       -5.550  -1.378   4.624  0.00  0.00    +0.031 C 
ENDBRANCH  23  26
ENDBRANCH  18  22
TORSDOF 2
