REMARK  Name = ZINC06524607
REMARK                            x       y       z     vdW  Elec       q    Type
REMARK                         _______ _______ _______ _____ _____    ______ ____
ROOT
ATOM      1  C   LIG    1       -2.390  -2.477  -0.627  0.00  0.00    +0.034 A 
ATOM      2  C   LIG    1       -1.376  -3.174  -0.002  0.00  0.00    +0.040 A 
ATOM      3  C   LIG    1       -1.648  -4.374   0.646  0.00  0.00    +0.048 A 
ATOM      4  N   LIG    1       -0.613  -5.045   1.306  0.00  0.00    -0.251 N 
ATOM      5  H   LIG    1       -0.749  -5.949   1.631  0.00  0.00    +0.158 HD
ATOM      6  C   LIG    1        0.573  -4.432   1.490  0.00  0.00    +0.407 C 
ATOM      7  O   LIG    1        0.729  -3.134   1.171  0.00  0.00    -0.417 OA
ATOM      8  O   LIG    1        1.509  -5.056   1.948  0.00  0.00    -0.226 OA
ATOM      9  C   LIG    1       -2.938  -4.881   0.650  0.00  0.00    +0.070 A 
ATOM     10  C   LIG    1       -3.955  -4.182   0.018  0.00  0.00    +0.137 A 
ATOM     11  C   LIG    1        0.038  -2.650  -0.013  0.00  0.00    +0.296 C 
ATOM     12  C   LIG    1       -3.679  -2.978  -0.618  0.00  0.00    +0.083 A 
ATOM     13 CL   LIG    1       -4.956  -2.101  -1.402  0.00  0.00    -0.080 Cl
ENDROOT
BRANCH  11  14
ATOM     14  C   LIG    1        0.758  -3.145  -1.268  0.00  0.00    +0.446 C 
ATOM     15  F   LIG    1        0.086  -2.683  -2.405  0.00  0.00    -0.165 F 
ATOM     16  F   LIG    1        0.776  -4.544  -1.274  0.00  0.00    -0.165 F 
ATOM     17  F   LIG    1        2.071  -2.662  -1.274  0.00  0.00    -0.165 F 
ENDBRANCH  11  14
BRANCH  10  18
ATOM     18  O   LIG    1       -5.222  -4.675   0.020  0.00  0.00    -0.505 OA
ATOM     19  H   LIG    1       -5.756  -4.383   0.771  0.00  0.00    +0.292 HD
ENDBRANCH  10  18
BRANCH  11  20
ATOM     20  C   LIG    1        0.018  -1.178  -0.004  0.00  0.00    -0.041 C 
ATOM     21  C   LIG    1        0.002  -0.004   0.002  0.00  0.00    -0.094 C 
BRANCH  21  22
ATOM     22  C   LIG    1       -0.018   1.468   0.010  0.00  0.00    +0.064 C 
ATOM     23  C   LIG    1        0.455   2.188  -1.254  0.00  0.00    +0.017 C 
ATOM     24  C   LIG    1        1.329   2.193   0.001  0.00  0.00    +0.017 C 
ENDBRANCH  21  22
ENDBRANCH  11  20
TORSDOF 4
