REMARK  Name = ZINC05891528
REMARK                            x       y       z     vdW  Elec       q    Type
REMARK                         _______ _______ _______ _____ _____    ______ ____
ROOT
ATOM      1  C   LIG    1       -2.556   1.503   1.073  0.00  0.00    +0.045 C 
ATOM      2  C   LIG    1       -1.222   2.203   1.016  0.00  0.00    -0.030 A 
ATOM      3  C   LIG    1       -1.125   3.553   1.226  0.00  0.00    -0.000 A 
ATOM      4  C   LIG    1        0.117   4.173   1.174  0.00  0.00    +0.119 A 
ATOM      5  N   LIG    1        1.217   3.500   0.921  0.00  0.00    -0.235 NA
ATOM      6  C   LIG    1        1.188   2.185   0.703  0.00  0.00    +0.167 A 
ATOM      7  N   LIG    1        2.303   1.488   0.444  0.00  0.00    -0.195 NA
ATOM      8  C   LIG    1        2.247   0.186   0.232  0.00  0.00    +0.216 A 
ATOM      9  N   LIG    1        1.108  -0.501   0.261  0.00  0.00    -0.199 NA
ATOM     10  C   LIG    1       -0.049   0.095   0.507  0.00  0.00    +0.131 A 
ATOM     11  C   LIG    1       -0.048   1.493   0.742  0.00  0.00    +0.062 A 
ENDROOT
BRANCH   8  12
ATOM     12  N   LIG    1        3.422  -0.492  -0.030  0.00  0.00    -0.327 N 
ATOM     13  H   LIG    1        4.264  -0.011  -0.056  0.00  0.00    +0.145 HD
ATOM     14  H   LIG    1        3.404  -1.449  -0.189  0.00  0.00    +0.145 HD
ENDBRANCH   8  12
BRANCH  10  15
ATOM     15  N   LIG    1       -1.224  -0.625   0.534  0.00  0.00    -0.342 N 
ATOM     16  H   LIG    1       -1.888  -0.443   1.216  0.00  0.00    +0.144 HD
ATOM     17  H   LIG    1       -1.385  -1.313  -0.130  0.00  0.00    +0.144 HD
ENDBRANCH  10  15
BRANCH   3  18
ATOM     18  C   LIG    1       -2.361   4.363   1.520  0.00  0.00    +0.192 C 
BRANCH  18  19
ATOM     19  O   LIG    1       -2.000   5.733   1.706  0.00  0.00    -0.390 OA
ATOM     20  H   LIG    1       -2.748   6.314   1.899  0.00  0.00    +0.210 HD
ENDBRANCH  18  19
ENDBRANCH   3  18
TORSDOF 4
