REMARK  Name = ZINC06494227
REMARK                            x       y       z     vdW  Elec       q    Type
REMARK                         _______ _______ _______ _____ _____    ______ ____
ROOT
ATOM      1  C   LIG    1       -1.600   2.820   0.700  0.00  0.00    -0.011 C 
ATOM      2  N   LIG    1       -1.255   2.954  -0.717  0.00  0.00    +0.386 N 
ATOM      3  H   LIG    1       -2.075   3.269  -1.249  0.00  0.00    -0.085 HD
ATOM      4  H   LIG    1       -0.492   3.633  -0.829  0.00  0.00    -0.085 HD
ATOM      5  C   LIG    1       -0.824   1.630  -1.195  0.00  0.00    -0.048 C 
ATOM      6  C   LIG    1       -0.013   1.086   0.008  0.00  0.00    +0.125 C 
ATOM      7  C   LIG    1       -0.799   1.616   1.229  0.00  0.00    +0.130 C 
ENDROOT
BRANCH   1   9
ATOM      8  C   LIG    1       -2.014   5.272   0.940  0.00  0.00    +0.036 C 
ATOM      9  C   LIG    1       -1.213   4.083   1.473  0.00  0.00    +0.100 C 
BRANCH   9  10
ATOM     10  O   LIG    1       -1.501   3.898   2.861  0.00  0.00    -0.394 OA
ATOM     11  H   LIG    1       -2.433   3.723   3.049  0.00  0.00    +0.210 HD
ENDBRANCH   9  10
ENDBRANCH   1   9
BRANCH   6  12
ATOM     12  O   LIG    1        1.317   1.608  -0.002  0.00  0.00    -0.391 OA
ATOM     13  H   LIG    1        1.841   1.336  -0.768  0.00  0.00    +0.210 HD
ENDBRANCH   6  12
BRANCH   7  14
ATOM     14  O   LIG    1        0.102   2.032   2.257  0.00  0.00    -0.391 OA
ATOM     15  H   LIG    1        0.664   1.323   2.598  0.00  0.00    +0.210 HD
ENDBRANCH   7  14
TORSDOF 4
