REMARK  Name = ZINC08144259
REMARK                            x       y       z     vdW  Elec       q    Type
REMARK                         _______ _______ _______ _____ _____    ______ ____
ROOT
ATOM      1  C   LIG    1       -0.018   1.503   0.010  0.00  0.00    +0.044 C 
ATOM      2  C   LIG    1        0.002  -0.004   0.002  0.00  0.00    -0.050 A 
ATOM      3  C   LIG    1        0.006  -0.686  -1.207  0.00  0.00    +0.005 A 
ATOM      4  C   LIG    1        0.023  -2.063  -1.236  0.00  0.00    +0.026 A 
ATOM      5  C   LIG    1        0.038  -2.780  -0.045  0.00  0.00    +0.049 A 
ATOM      6  C   LIG    1        0.036  -2.084   1.181  0.00  0.00    +0.002 A 
ATOM      7  C   LIG    1        0.055  -3.108   2.218  0.00  0.00    -0.036 A 
ATOM      8  C   LIG    1        0.068  -4.307   1.599  0.00  0.00    +0.019 A 
ATOM      9  C   LIG    1        0.096  -5.613   2.361  0.00  0.00    +0.035 C 
ATOM     10  C   LIG    1        0.499  -5.302   3.809  0.00  0.00    -0.073 C 
ATOM     11  N   LIG    1       -0.335  -4.212   4.332  0.00  0.00    +0.381 N 
ATOM     12  H   LIG    1       -1.304  -4.402   4.123  0.00  0.00    -0.082 HD
ATOM     13  C   LIG    1       -0.162  -4.122   5.788  0.00  0.00    -0.096 C 
ATOM     14  C   LIG    1        0.057  -2.935   3.714  0.00  0.00    -0.041 C 
ATOM     15  N   LIG    1        0.057  -4.127   0.248  0.00  0.00    -0.343 N 
ATOM     16  C   LIG    1        0.023  -0.688   1.184  0.00  0.00    +0.013 A 
ENDROOT
BRANCH  15  17
ATOM     17  C   LIG    1        0.063  -5.205  -0.744  0.00  0.00    +0.127 C 
BRANCH  17  18
ATOM     18  C   LIG    1        1.508  -5.563  -1.098  0.00  0.00    +0.058 C 
BRANCH  18  19
ATOM     19  C   LIG    1        1.515  -6.671  -2.119  0.00  0.00    -0.028 A 
ATOM     20  C   LIG    1        1.527  -7.998  -1.715  0.00  0.00    +0.007 A 
ATOM     21  C   LIG    1        1.534  -8.984  -2.689  0.00  0.00    +0.023 A 
ATOM     22  C   LIG    1        1.527  -8.615  -4.022  0.00  0.00    +0.038 A 
ATOM     23  C   LIG    1        1.533  -9.679  -5.089  0.00  0.00    +0.065 C 
ATOM     24  N   LIG    1        1.515  -7.343  -4.369  0.00  0.00    -0.260 NA
ATOM     25  C   LIG    1        1.503  -6.379  -3.470  0.00  0.00    +0.114 A 
ENDBRANCH  18  19
ENDBRANCH  17  18
ENDBRANCH  15  17
TORSDOF 3
