REMARK  Name = ZINC06093148
REMARK                            x       y       z     vdW  Elec       q    Type
REMARK                         _______ _______ _______ _____ _____    ______ ____
ROOT
ATOM      1  C   LIG    1       -0.017   1.378   0.010  0.00  0.00    +0.029 A 
ATOM      2  C   LIG    1        1.171   2.086   0.002  0.00  0.00    +0.017 A 
ATOM      3  C   LIG    1        2.378   1.411  -0.013  0.00  0.00    +0.018 A 
ATOM      4 BR   LIG    1        4.003   2.378  -0.024  0.00  0.00    -0.050 Br
ATOM      5  C   LIG    1        2.396   0.027  -0.021  0.00  0.00    +0.017 A 
ATOM      6  C   LIG    1        1.208  -0.679  -0.013  0.00  0.00    +0.029 A 
ATOM      7  C   LIG    1        0.002  -0.004   0.002  0.00  0.00    +0.107 A 
ENDROOT
BRANCH   7   8
ATOM      8  S   LIG    1       -1.512  -0.905   0.012  0.00  0.00    +0.080 S 
ATOM      9  O   LIG    1       -2.493  -0.046   0.577  0.00  0.00    -0.151 OA
ATOM     10  O   LIG    1       -1.218  -2.186   0.553  0.00  0.00    -0.151 OA
BRANCH   8  11
ATOM     11  N   LIG    1       -1.948  -1.147  -1.567  0.00  0.00    -0.071 NA
ATOM     12  H   LIG    1       -2.755  -0.738  -1.916  0.00  0.00    +0.181 HD
BRANCH  11  13
ATOM     13  O   LIG    1       -1.142  -1.952  -2.409  0.00  0.00    -0.295 OA
ATOM     14  H   LIG    1       -1.476  -2.034  -3.313  0.00  0.00    +0.238 HD
ENDBRANCH  11  13
ENDBRANCH   8  11
ENDBRANCH   7   8
TORSDOF 3
