REMARK  Name = ZINC06116142
REMARK                            x       y       z     vdW  Elec       q    Type
REMARK                         _______ _______ _______ _____ _____    ______ ____
ROOT
ATOM      1  C   LIG    1        8.999   0.382   0.168  0.00  0.00    +0.164 C 
ATOM      2  O   LIG    1        9.129  -0.824   0.150  0.00  0.00    -0.292 OA
ENDROOT
BRANCH   1   3
ATOM      3  C   LIG    1       10.181   1.246   0.296  0.00  0.00    +0.017 A 
ATOM      4  C   LIG    1       10.033   2.639   0.312  0.00  0.00    +0.012 A 
ATOM      5  C   LIG    1       11.136   3.443   0.436  0.00  0.00    +0.009 A 
ATOM      6  C   LIG    1       12.407   2.875   0.536  0.00  0.00    -0.018 A 
ATOM      7  C   LIG    1       12.557   1.488   0.515  0.00  0.00    +0.009 A 
ATOM      8  C   LIG    1       11.457   0.679   0.396  0.00  0.00    +0.012 A 
BRANCH   6   9
ATOM      9  C   LIG    1       13.599   3.747   0.664  0.00  0.00    -0.018 A 
ATOM     10  C   LIG    1       14.870   3.183   0.769  0.00  0.00    +0.010 A 
ATOM     11  C   LIG    1       15.976   3.999   0.883  0.00  0.00    +0.020 A 
ATOM     12  C   LIG    1       15.825   5.375   0.903  0.00  0.00    +0.041 A 
ATOM     13 CL   LIG    1       17.221   6.397   1.054  0.00  0.00    -0.084 Cl
ATOM     14  C   LIG    1       14.565   5.940   0.805  0.00  0.00    +0.020 A 
ATOM     15  C   LIG    1       13.452   5.133   0.685  0.00  0.00    +0.010 A 
ENDBRANCH   6   9
ENDBRANCH   1   3
BRANCH   1  16
ATOM     16  C   LIG    1        7.626   0.994   0.061  0.00  0.00    +0.095 C 
BRANCH  16  17
ATOM     17  C   LIG    1        6.581  -0.117  -0.061  0.00  0.00    +0.115 C 
BRANCH  17  18
ATOM     18  C   LIG    1        6.787  -0.862  -1.354  0.00  0.00    +0.309 C 
ATOM     19  O   LIG    1        5.905  -0.898  -2.179  0.00  0.00    -0.251 OA
BRANCH  18  20
ATOM     20  O   LIG    1        7.952  -1.486  -1.591  0.00  0.00    -0.480 OA
ATOM     21  H   LIG    1        8.637  -1.458  -0.951  0.00  0.00    +0.295 HD
ENDBRANCH  18  20
ENDBRANCH  17  18
BRANCH  17  22
ATOM     22  C   LIG    1        5.179   0.497  -0.044  0.00  0.00    +0.089 C 
BRANCH  22  23
ATOM     23  S   LIG    1        3.939  -0.827  -0.040  0.00  0.00    -0.124 S 
BRANCH  23  27
ATOM     24  C   LIG    1       -0.017   1.379   0.010  0.00  0.00    +0.000 A 
ATOM     25  C   LIG    1        1.169   2.090   0.002  0.00  0.00    +0.001 A 
ATOM     26  C   LIG    1        2.377   1.421  -0.013  0.00  0.00    +0.015 A 
ATOM     27  C   LIG    1        2.400   0.031  -0.021  0.00  0.00    +0.008 A 
ATOM     28  C   LIG    1        1.206  -0.680  -0.013  0.00  0.00    +0.015 A 
ATOM     29  C   LIG    1        0.002  -0.004   0.002  0.00  0.00    +0.001 A 
ENDBRANCH  23  27
ENDBRANCH  22  23
ENDBRANCH  17  22
ENDBRANCH  16  17
ENDBRANCH   1  16
TORSDOF 9
