REMARK  Name = ZINC06755708
REMARK                            x       y       z     vdW  Elec       q    Type
REMARK                         _______ _______ _______ _____ _____    ______ ____
ROOT
ATOM      1  C   LIG    1       -0.749   3.086   1.275  0.00  0.00    +0.235 C 
ATOM      2  N   LIG    1       -1.332   3.747   2.295  0.00  0.00    -0.185 N 
ATOM      3  C   LIG    1       -1.422   5.209   2.428  0.00  0.00    +0.137 C 
ATOM      4  C   LIG    1       -2.176   5.406   3.758  0.00  0.00    +0.087 C 
ATOM      5  C   LIG    1       -2.434   3.997   4.242  0.00  0.00    +0.069 C 
ATOM      6  N   LIG    1       -1.954   3.156   3.393  0.00  0.00    -0.181 NA
ATOM      7  O   LIG    1       -0.241   3.705   0.364  0.00  0.00    -0.274 OA
ENDROOT
BRANCH   5   8
ATOM      8  C   LIG    1       -3.136   3.641   5.489  0.00  0.00    -0.002 A 
ATOM      9  C   LIG    1       -3.618   4.644   6.334  0.00  0.00    +0.011 A 
ATOM     10  C   LIG    1       -4.278   4.305   7.496  0.00  0.00    +0.020 A 
ATOM     11  C   LIG    1       -4.453   2.973   7.832  0.00  0.00    +0.041 A 
ATOM     12 CL   LIG    1       -5.279   2.554   9.301  0.00  0.00    -0.084 Cl
ATOM     13  C   LIG    1       -3.973   1.974   7.002  0.00  0.00    +0.020 A 
ATOM     14  C   LIG    1       -3.317   2.300   5.834  0.00  0.00    +0.011 A 
ENDBRANCH   5   8
BRANCH   3  15
ATOM     15  C   LIG    1       -2.205   5.798   1.282  0.00  0.00    -0.024 A 
ATOM     16  C   LIG    1       -3.313   5.133   0.789  0.00  0.00    +0.009 A 
ATOM     17  C   LIG    1       -4.035   5.674  -0.257  0.00  0.00    +0.046 A 
ATOM     18  C   LIG    1       -3.642   6.879  -0.820  0.00  0.00    +0.120 A 
ATOM     19  C   LIG    1       -2.527   7.542  -0.327  0.00  0.00    +0.046 A 
ATOM     20  C   LIG    1       -1.812   7.000   0.723  0.00  0.00    +0.009 A 
BRANCH  18  21
ATOM     21  O   LIG    1       -4.348   7.410  -1.853  0.00  0.00    -0.495 OA
ATOM     22  C   LIG    1       -5.484   6.673  -2.309  0.00  0.00    +0.277 C 
ENDBRANCH  18  21
ENDBRANCH   3  15
BRANCH   1  24
ATOM     23  C   LIG    1       -0.013   1.086   0.008  0.00  0.00    +0.013 C 
ATOM     24  C   LIG    1       -0.729   1.579   1.267  0.00  0.00    +0.094 C 
ENDBRANCH   1  24
TORSDOF 4
