REMARK  Name = ZINC06706962
REMARK                            x       y       z     vdW  Elec       q    Type
REMARK                         _______ _______ _______ _____ _____    ______ ____
ROOT
ATOM      1  C   LIG    1       -0.968  -0.146   5.069  0.00  0.00    +0.109 A 
ATOM      2  C   LIG    1        0.259   0.443   5.314  0.00  0.00    +0.030 A 
ATOM      3  C   LIG    1        0.513   1.029   6.538  0.00  0.00    +0.025 A 
ATOM      4  C   LIG    1       -0.465   1.027   7.524  0.00  0.00    +0.033 A 
ATOM      5  C   LIG    1       -1.696   0.434   7.276  0.00  0.00    +0.025 A 
ATOM      6  C   LIG    1       -1.946  -0.146   6.047  0.00  0.00    +0.030 A 
ENDROOT
BRANCH   1   7
ATOM      7  S   LIG    1       -1.289  -0.893   3.506  0.00  0.00    +0.075 S 
ATOM      8  O   LIG    1       -0.026  -1.242   2.956  0.00  0.00    -0.150 OA
ATOM      9  O   LIG    1       -2.319  -1.849   3.716  0.00  0.00    -0.150 OA
BRANCH   7  10
ATOM     10  N   LIG    1       -1.925   0.280   2.525  0.00  0.00    -0.183 N 
ATOM     11  H   LIG    1       -2.052   1.194   2.869  0.00  0.00    +0.177 HD
BRANCH  10  18
ATOM     12  C   LIG    1       -3.112   2.294   0.549  0.00  0.00    +0.051 C 
ATOM     13  C   LIG    1       -2.805   0.838   0.314  0.00  0.00    +0.035 A 
ATOM     14  C   LIG    1       -3.010   0.136  -0.881  0.00  0.00    +0.085 A 
ATOM     15  C   LIG    1       -3.576   0.707  -2.155  0.00  0.00    +0.069 C 
ATOM     16  N   LIG    1       -2.625  -1.099  -0.701  0.00  0.00    -0.081 NA
ATOM     17  O   LIG    1       -2.158  -1.224   0.630  0.00  0.00    -0.338 OA
ATOM     18  C   LIG    1       -2.276  -0.024   1.222  0.00  0.00    +0.240 A 
ENDBRANCH  10  18
ENDBRANCH   7  10
ENDBRANCH   1   7
BRANCH   4  19
ATOM     19  N   LIG    1       -0.210   1.619   8.766  0.00  0.00    -0.297 N 
ATOM     20  H   LIG    1       -0.511   1.187   9.580  0.00  0.00    +0.154 HD
BRANCH  19  21
ATOM     21  C   LIG    1        0.454   2.790   8.830  0.00  0.00    +0.139 C 
ATOM     22  S   LIG    1        0.857   3.626   7.391  0.00  0.00    -0.018 S 
BRANCH  21  23
ATOM     23  N   LIG    1        0.801   3.303  10.027  0.00  0.00    -0.297 N 
ATOM     24  H   LIG    1        0.647   2.792  10.837  0.00  0.00    +0.154 HD
BRANCH  23  25
ATOM     25  C   LIG    1        1.383   4.573  10.101  0.00  0.00    +0.033 A 
ATOM     26  C   LIG    1        0.902   5.606   9.307  0.00  0.00    +0.023 A 
ATOM     27  C   LIG    1        1.479   6.859   9.383  0.00  0.00    +0.002 A 
ATOM     28  C   LIG    1        2.534   7.085  10.248  0.00  0.00    +0.000 A 
ATOM     29  C   LIG    1        3.015   6.058  11.040  0.00  0.00    +0.002 A 
ATOM     30  C   LIG    1        2.439   4.805  10.973  0.00  0.00    +0.023 A 
ENDBRANCH  23  25
ENDBRANCH  21  23
ENDBRANCH  19  21
ENDBRANCH   4  19
TORSDOF 7
