REMARK  Name = ZINC06710049
REMARK                            x       y       z     vdW  Elec       q    Type
REMARK                         _______ _______ _______ _____ _____    ______ ____
ROOT
ATOM      1  C   LIG    1       -1.270   5.914  -0.058  0.00  0.00    +0.135 A 
ATOM      2  C   LIG    1       -1.303   7.329  -0.157  0.00  0.00    +0.040 A 
ATOM      3  C   LIG    1       -0.135   8.098  -0.170  0.00  0.00    +0.013 A 
ATOM      4  C   LIG    1       -0.225   9.456  -0.268  0.00  0.00    +0.001 A 
ATOM      5  C   LIG    1       -1.463  10.086  -0.355  0.00  0.00    +0.002 A 
ATOM      6  C   LIG    1       -2.620   9.365  -0.345  0.00  0.00    +0.028 A 
ATOM      7  C   LIG    1       -2.565   7.968  -0.246  0.00  0.00    +0.077 A 
ATOM      8  N   LIG    1       -3.672   7.214  -0.233  0.00  0.00    -0.227 NA
ATOM      9  C   LIG    1       -3.586   5.898  -0.138  0.00  0.00    +0.169 A 
ATOM     10  N   LIG    1       -2.418   5.257  -0.058  0.00  0.00    -0.211 NA
ENDROOT
BRANCH   9  11
ATOM     11  C   LIG    1       -4.830   5.106  -0.127  0.00  0.00    +0.056 A 
ATOM     12  C   LIG    1       -6.130   5.537  -0.197  0.00  0.00    +0.019 A 
ATOM     13  C   LIG    1       -7.139   4.603  -0.172  0.00  0.00    +0.008 A 
ATOM     14  C   LIG    1       -6.820   3.286  -0.069  0.00  0.00    +0.046 A 
ATOM     15  S   LIG    1       -5.036   3.336  -0.011  0.00  0.00    -0.094 S 
ENDBRANCH   9  11
BRANCH   1  16
ATOM     16  N   LIG    1       -0.069   5.240   0.031  0.00  0.00    -0.299 N 
ATOM     17  H   LIG    1        0.761   5.736   0.108  0.00  0.00    +0.154 HD
BRANCH  16  21
ATOM     18  C   LIG    1       -0.010   1.076  -0.027  0.00  0.00    +0.000 A 
ATOM     19  C   LIG    1       -0.965   1.763  -0.755  0.00  0.00    +0.002 A 
ATOM     20  C   LIG    1       -0.991   3.144  -0.733  0.00  0.00    +0.023 A 
ATOM     21  C   LIG    1       -0.049   3.843   0.011  0.00  0.00    +0.032 A 
ATOM     22  C   LIG    1        0.912   3.150   0.737  0.00  0.00    +0.023 A 
ATOM     23  C   LIG    1        0.928   1.769   0.715  0.00  0.00    +0.002 A 
ENDBRANCH  16  21
ENDBRANCH   1  16
TORSDOF 3
