REMARK  Name = ZINC08143632
REMARK                            x       y       z     vdW  Elec       q    Type
REMARK                         _______ _______ _______ _____ _____    ______ ____
ROOT
ATOM      1  C   LIG    1       -0.786  -3.227   1.454  0.00  0.00    +0.192 C 
ATOM      2  C   LIG    1       -2.258  -3.615   1.305  0.00  0.00    +0.208 C 
ATOM      3  C   LIG    1       -2.898  -3.732   2.690  0.00  0.00    +0.193 C 
ATOM      4  C   LIG    1       -2.167  -4.804   3.500  0.00  0.00    +0.207 C 
ATOM      5  C   LIG    1       -0.695  -4.416   3.650  0.00  0.00    +0.185 C 
ATOM      6  C   LIG    1       -0.055  -4.300   2.264  0.00  0.00    +0.179 C 
ENDROOT
BRANCH   6   7
ATOM      7  O   LIG    1        1.320  -3.937   2.404  0.00  0.00    -0.386 OA
ATOM      8  H   LIG    1        1.859  -4.605   2.849  0.00  0.00    +0.210 HD
ENDBRANCH   6   7
BRANCH   5   9
ATOM      9  O   LIG    1       -0.013  -5.418   4.407  0.00  0.00    -0.386 OA
ATOM     10  H   LIG    1        0.923  -5.228   4.556  0.00  0.00    +0.210 HD
ENDBRANCH   5   9
BRANCH   4  11
ATOM     11  N   LIG    1       -2.780  -4.916   4.826  0.00  0.00    -0.271 N 
ATOM     12  H   LIG    1       -3.257  -4.161   5.205  0.00  0.00    +0.258 HD
BRANCH  11  13
ATOM     13  C   LIG    1       -2.679  -6.085   5.530  0.00  0.00    +0.341 C 
ATOM     14  N   LIG    1       -3.236  -6.186   6.736  0.00  0.00    -0.292 N 
ATOM     15  H   LIG    1       -3.164  -7.015   7.235  0.00  0.00    +0.255 HD
ATOM     16  H   LIG    1       -3.713  -5.431   7.115  0.00  0.00    +0.255 HD
BRANCH  13  17
ATOM     17  N   LIG    1       -2.024  -7.121   5.010  0.00  0.00    -0.292 N 
ATOM     18  H   LIG    1       -1.952  -7.950   5.509  0.00  0.00    +0.255 HD
ATOM     19  H   LIG    1       -1.618  -7.047   4.132  0.00  0.00    +0.255 HD
ENDBRANCH  13  17
ENDBRANCH  11  13
ENDBRANCH   4  11
BRANCH   3  20
ATOM     20  O   LIG    1       -4.273  -4.094   2.550  0.00  0.00    -0.385 OA
ATOM     21  H   LIG    1       -4.743  -4.186   3.391  0.00  0.00    +0.210 HD
ENDBRANCH   3  20
BRANCH   2  22
ATOM     22  N   LIG    1       -2.958  -2.588   0.529  0.00  0.00    -0.271 N 
ATOM     23  H   LIG    1       -2.617  -1.680   0.508  0.00  0.00    +0.258 HD
BRANCH  22  24
ATOM     24  C   LIG    1       -4.091  -2.910  -0.166  0.00  0.00    +0.341 C 
ATOM     25  N   LIG    1       -4.727  -1.976  -0.872  0.00  0.00    -0.292 N 
ATOM     26  H   LIG    1       -5.531  -2.204  -1.365  0.00  0.00    +0.255 HD
ATOM     27  H   LIG    1       -4.386  -1.068  -0.893  0.00  0.00    +0.255 HD
BRANCH  24  28
ATOM     28  N   LIG    1       -4.559  -4.156  -0.137  0.00  0.00    -0.292 N 
ATOM     29  H   LIG    1       -5.363  -4.384  -0.630  0.00  0.00    +0.255 HD
ATOM     30  H   LIG    1       -4.096  -4.836   0.377  0.00  0.00    +0.255 HD
ENDBRANCH  24  28
ENDBRANCH  22  24
ENDBRANCH   2  22
BRANCH   1  31
ATOM     31  O   LIG    1       -0.189  -3.118   0.161  0.00  0.00    -0.339 OA
BRANCH  31  36
ATOM     32  C   LIG    1       -0.534   0.805  -1.730  0.00  0.00    +0.041 C 
ATOM     33  C   LIG    1       -0.308  -0.666  -1.375  0.00  0.00    +0.160 C 
ATOM     34  C   LIG    1        0.832  -1.258  -2.233  0.00  0.00    +0.177 C 
ATOM     35  C   LIG    1        1.572  -2.211  -1.269  0.00  0.00    +0.218 C 
ATOM     36  C   LIG    1        0.792  -2.083   0.058  0.00  0.00    +0.283 C 
ATOM     37  O   LIG    1        0.151  -0.789  -0.011  0.00  0.00    -0.342 OA
BRANCH  34  38
ATOM     38  C   LIG    1        0.270  -2.022  -3.404  0.00  0.00    +0.263 C 
ATOM     39  O   LIG    1       -0.925  -2.078  -3.571  0.00  0.00    -0.298 OA
ENDBRANCH  34  38
BRANCH  34  40
ATOM     40  O   LIG    1        1.708  -0.222  -2.684  0.00  0.00    -0.376 OA
ATOM     41  H   LIG    1        1.280   0.439  -3.245  0.00  0.00    +0.211 HD
ENDBRANCH  34  40
BRANCH  35  42
ATOM     42  O   LIG    1        2.929  -1.796  -1.097  0.00  0.00    -0.338 OA
BRANCH  42  43
ATOM     43  C   LIG    1        3.838  -2.377  -2.034  0.00  0.00    +0.271 C 
ATOM     44  C   LIG    1        5.213  -1.722  -1.884  0.00  0.00    +0.141 C 
ATOM     45  C   LIG    1        5.753  -2.003  -0.478  0.00  0.00    +0.167 C 
ATOM     46  C   LIG    1        5.803  -3.517  -0.255  0.00  0.00    +0.176 C 
ATOM     47  C   LIG    1        4.404  -4.103  -0.468  0.00  0.00    +0.178 C 
ATOM     48  O   LIG    1        3.949  -3.779  -1.784  0.00  0.00    -0.341 OA
BRANCH  44  49
ATOM     49  N   LIG    1        5.091  -0.272  -2.084  0.00  0.00    -0.310 NA
ATOM     50  H   LIG    1        4.244   0.081  -1.665  0.00  0.00    +0.122 HD
ATOM     51  C   LIG    1        5.155   0.070  -3.511  0.00  0.00    +0.101 C 
ENDBRANCH  44  49
BRANCH  46  52
ATOM     52  O   LIG    1        6.238  -3.789   1.078  0.00  0.00    -0.387 OA
ATOM     53  H   LIG    1        6.292  -4.732   1.290  0.00  0.00    +0.210 HD
ENDBRANCH  46  52
BRANCH  45  54
ATOM     54  O   LIG    1        7.067  -1.456  -0.353  0.00  0.00    -0.387 OA
ATOM     55  H   LIG    1        7.471  -1.597   0.514  0.00  0.00    +0.210 HD
ENDBRANCH  45  54
BRANCH  47  56
ATOM     56  C   LIG    1        4.457  -5.623  -0.306  0.00  0.00    +0.190 C 
BRANCH  56  57
ATOM     57  O   LIG    1        3.134  -6.157  -0.385  0.00  0.00    -0.392 OA
ATOM     58  H   LIG    1        3.083  -7.108  -0.215  0.00  0.00    +0.210 HD
ENDBRANCH  56  57
ENDBRANCH  47  56
ENDBRANCH  42  43
ENDBRANCH  35  42
ENDBRANCH  31  36
ENDBRANCH   1  31
TORSDOF 20
