REMARK  Name = ZINC07996826
REMARK                            x       y       z     vdW  Elec       q    Type
REMARK                         _______ _______ _______ _____ _____    ______ ____
ROOT
ATOM      1  C   LIG    1        0.094  -4.260  -0.043  0.00  0.00    +0.080 A 
ATOM      2  C   LIG    1       -0.928  -4.975   0.517  0.00  0.00    +0.076 A 
ATOM      3  S   LIG    1       -0.370  -6.646   0.212  0.00  0.00    -0.060 S 
ATOM      4  C   LIG    1        1.157  -6.223  -0.615  0.00  0.00    +0.165 A 
ATOM      5  N   LIG    1        1.112  -4.904  -0.592  0.00  0.00    -0.225 NA
ENDROOT
BRANCH   1  13
ATOM      6  C   LIG    1        1.905   1.882   1.378  0.00  0.00    +0.062 C 
ATOM      7  C   LIG    1        1.252   2.016   0.001  0.00  0.00    +0.256 C 
ATOM      8  C   LIG    1        2.143   1.389  -1.041  0.00  0.00    +0.258 C 
ATOM      9  N   LIG    1        2.015   0.075  -1.328  0.00  0.00    -0.280 N 
ATOM     10  H   LIG    1        2.598  -0.346  -1.979  0.00  0.00    +0.155 HD
ATOM     11  C   LIG    1        1.026  -0.671  -0.671  0.00  0.00    +0.076 A 
ATOM     12  C   LIG    1        1.059  -2.054  -0.687  0.00  0.00    +0.037 A 
ATOM     13  C   LIG    1        0.065  -2.777  -0.029  0.00  0.00    +0.003 A 
ATOM     14  C   LIG    1       -0.955  -2.105   0.642  0.00  0.00    +0.014 A 
ATOM     15  C   LIG    1       -0.984  -0.725   0.655  0.00  0.00    +0.048 A 
ATOM     16  C   LIG    1        0.002  -0.004   0.002  0.00  0.00    +0.143 A 
ATOM     17  O   LIG    1        2.971   2.060  -1.619  0.00  0.00    -0.271 OA
ATOM     18  O   LIG    1       -0.016   1.356   0.009  0.00  0.00    -0.478 OA
ENDBRANCH   1  13
BRANCH   4  19
ATOM     19  N   LIG    1        2.132  -7.060  -1.141  0.00  0.00    -0.261 N 
ATOM     20  H   LIG    1        2.918  -6.682  -1.566  0.00  0.00    +0.157 HD
ATOM     21  C   LIG    1        1.988  -8.398  -1.060  0.00  0.00    +0.250 C 
ATOM     22  O   LIG    1        1.003  -8.871  -0.527  0.00  0.00    -0.270 OA
BRANCH  21  23
ATOM     23  C   LIG    1        3.025  -9.289  -1.620  0.00  0.00    +0.038 A 
ATOM     24  C   LIG    1        2.878 -10.675  -1.538  0.00  0.00    +0.013 A 
ATOM     25  C   LIG    1        3.850 -11.501  -2.062  0.00  0.00    +0.002 A 
ATOM     26  C   LIG    1        4.970 -10.960  -2.669  0.00  0.00    +0.020 A 
ATOM     27  C   LIG    1        5.123  -9.586  -2.754  0.00  0.00    +0.042 A 
ATOM     28 CL   LIG    1        6.531  -8.917  -3.517  0.00  0.00    -0.084 Cl
ATOM     29  C   LIG    1        4.154  -8.748  -2.238  0.00  0.00    +0.033 A 
ENDBRANCH  21  23
ENDBRANCH   4  19
TORSDOF 3
