REMARK  Name = ZINC06094108
REMARK                            x       y       z     vdW  Elec       q    Type
REMARK                         _______ _______ _______ _____ _____    ______ ____
ROOT
ATOM      1  C   LIG    1       -0.017   1.382   0.010  0.00  0.00    +0.016 A 
ATOM      2  C   LIG    1        1.161   2.101   0.002  0.00  0.00    +0.027 A 
ATOM      3  C   LIG    1        2.381   1.435  -0.013  0.00  0.00    +0.051 A 
ATOM      4  C   LIG    1        2.398   0.032  -0.021  0.00  0.00    +0.031 A 
ATOM      5  C   LIG    1        3.822  -0.361  -0.037  0.00  0.00    +0.150 A 
ATOM      6  C   LIG    1        4.552   0.830  -0.038  0.00  0.00    +0.219 A 
ATOM      7  C   LIG    1        1.204  -0.682  -0.013  0.00  0.00    +0.026 A 
ATOM      8  N   LIG    1        3.693   1.879  -0.024  0.00  0.00    -0.324 N 
ATOM      9  H   LIG    1        3.961   2.811  -0.021  0.00  0.00    +0.169 HD
ATOM     10  C   LIG    1        0.002  -0.004   0.002  0.00  0.00    +0.014 A 
ATOM     11  I   LIG    1       -1.800  -1.073   0.014  0.00  0.00    -0.044 I 
ENDROOT
BRANCH   5  12
ATOM     12  N   LIG    1        4.313  -1.606  -0.048  0.00  0.00    -0.175 NA
ATOM     13  N   LIG    1        5.589  -1.796  -0.061  0.00  0.00    -0.218 N 
ATOM     14  H   LIG    1        6.192  -1.036  -0.064  0.00  0.00    +0.176 HD
BRANCH  13  15
ATOM     15  C   LIG    1        6.083  -3.049  -0.073  0.00  0.00    +0.147 C 
ATOM     16  S   LIG    1        7.776  -3.301  -0.091  0.00  0.00    -0.017 S 
BRANCH  15  17
ATOM     17  N   LIG    1        5.245  -4.104  -0.070  0.00  0.00    -0.339 N 
ATOM     18  H   LIG    1        5.601  -5.007  -0.078  0.00  0.00    +0.144 HD
ATOM     19  H   LIG    1        4.285  -3.962  -0.059  0.00  0.00    +0.144 HD
ENDBRANCH  15  17
ENDBRANCH  13  15
ENDBRANCH   5  12
BRANCH   6  20
ATOM     20  O   LIG    1        5.898   0.921  -0.050  0.00  0.00    -0.492 OA
ATOM     21  H   LIG    1        6.282   0.952  -0.937  0.00  0.00    +0.294 HD
ENDBRANCH   6  20
TORSDOF 4
