REMARK  Name = ZINC06267373
REMARK                            x       y       z     vdW  Elec       q    Type
REMARK                         _______ _______ _______ _____ _____    ______ ____
ROOT
ATOM      1  C   LIG    1        3.486  -2.544  -6.582  0.00  0.00    +0.037 A 
ATOM      2  C   LIG    1        2.466  -2.653  -7.532  0.00  0.00    +0.015 A 
ATOM      3  C   LIG    1        2.758  -3.081  -8.807  0.00  0.00    +0.025 A 
ATOM      4  C   LIG    1        4.067  -3.406  -9.151  0.00  0.00    +0.048 A 
ATOM      5  C   LIG    1        5.085  -3.300  -8.207  0.00  0.00    +0.025 A 
ATOM      6  C   LIG    1        4.801  -2.866  -6.932  0.00  0.00    +0.015 A 
ENDROOT
BRANCH   1   9
ATOM      7  N   LIG    1        1.909  -1.775  -4.879  0.00  0.00    -0.259 N 
ATOM      8  H   LIG    1        1.200  -1.854  -5.536  0.00  0.00    +0.157 HD
ATOM      9  C   LIG    1        3.177  -2.085  -5.215  0.00  0.00    +0.250 C 
ATOM     10  O   LIG    1        4.066  -1.986  -4.391  0.00  0.00    -0.270 OA
BRANCH   7  14
ATOM     11  C   LIG    1        0.707  -0.490  -1.238  0.00  0.00    +0.103 A 
ATOM     12  N   LIG    1        1.982  -0.760  -1.437  0.00  0.00    -0.145 NA
ATOM     13  N   LIG    1        2.418  -1.164  -2.549  0.00  0.00    -0.126 NA
ATOM     14  C   LIG    1        1.617  -1.343  -3.591  0.00  0.00    +0.188 A 
ATOM     15  S   LIG    1        0.052  -0.874  -2.859  0.00  0.00    -0.035 S 
BRANCH  11  17
ATOM     16  C   LIG    1       -0.019   1.526   0.010  0.00  0.00    +0.011 C 
ATOM     17  C   LIG    1        0.002  -0.004   0.002  0.00  0.00    +0.061 C 
ENDBRANCH  11  17
ENDBRANCH   7  14
ENDBRANCH   1   9
BRANCH   4  18
ATOM     18  N   LIG    1        4.359  -3.839 -10.440  0.00  0.00    -0.216 N 
ATOM     19  H   LIG    1        3.639  -3.915 -11.108  0.00  0.00    +0.174 HD
BRANCH  18  20
ATOM     20  S   LIG    1        5.915  -4.226 -10.851  0.00  0.00    +0.072 S 
ATOM     21  O   LIG    1        6.262  -5.376 -10.091  0.00  0.00    -0.150 OA
ATOM     22  O   LIG    1        6.663  -3.020 -10.791  0.00  0.00    -0.150 OA
BRANCH  20  23
ATOM     23  C   LIG    1        5.899  -4.726 -12.540  0.00  0.00    +0.108 A 
ATOM     24  C   LIG    1        5.694  -6.053 -12.867  0.00  0.00    +0.029 A 
ATOM     25  C   LIG    1        5.681  -6.445 -14.192  0.00  0.00    +0.002 A 
ATOM     26  C   LIG    1        5.873  -5.510 -15.191  0.00  0.00    +0.000 A 
ATOM     27  C   LIG    1        6.077  -4.182 -14.865  0.00  0.00    +0.002 A 
ATOM     28  C   LIG    1        6.085  -3.789 -13.540  0.00  0.00    +0.029 A 
ENDBRANCH  20  23
ENDBRANCH  18  20
ENDBRANCH   4  18
TORSDOF 6
