REMARK  Name = ZINC08553066
REMARK                            x       y       z     vdW  Elec       q    Type
REMARK                         _______ _______ _______ _____ _____    ______ ____
ROOT
ATOM      1  N   LIG    1        5.944  -1.945   2.764  0.00  0.00    -0.299 NA
ATOM      2  C   LIG    1        6.243  -0.689   3.463  0.00  0.00    +0.103 C 
ATOM      3  C   LIG    1        6.527  -0.985   4.940  0.00  0.00    +0.120 C 
ATOM      4  N   LIG    1        7.584  -2.005   5.016  0.00  0.00    -0.327 N 
ATOM      5  C   LIG    1        7.419  -3.238   4.231  0.00  0.00    +0.120 C 
ATOM      6  C   LIG    1        7.099  -2.853   2.782  0.00  0.00    +0.103 C 
ENDROOT
BRANCH   4   7
ATOM      7  C   LIG    1        8.714  -1.809   5.813  0.00  0.00    +0.030 A 
ATOM      8  C   LIG    1        8.908  -0.594   6.459  0.00  0.00    +0.023 A 
ATOM      9  C   LIG    1       10.026  -0.403   7.246  0.00  0.00    +0.002 A 
ATOM     10  C   LIG    1       10.952  -1.420   7.393  0.00  0.00    +0.000 A 
ATOM     11  C   LIG    1       10.762  -2.630   6.751  0.00  0.00    +0.002 A 
ATOM     12  C   LIG    1        9.643  -2.829   5.967  0.00  0.00    +0.023 A 
ENDBRANCH   4   7
BRANCH   1  13
ATOM     13  C   LIG    1        5.498  -1.689   1.388  0.00  0.00    +0.085 C 
BRANCH  13  14
ATOM     14  C   LIG    1        4.158  -0.951   1.415  0.00  0.00    +0.020 C 
BRANCH  14  15
ATOM     15  C   LIG    1        3.693  -0.684  -0.018  0.00  0.00    +0.036 C 
BRANCH  15  19
ATOM     16  C   LIG    1       -0.049   1.374   0.056  0.00  0.00    +0.000 A 
ATOM     17  C   LIG    1        1.134   2.090   0.054  0.00  0.00    +0.000 A 
ATOM     18  C   LIG    1        2.345   1.424   0.030  0.00  0.00    +0.003 A 
ATOM     19  C   LIG    1        2.373   0.042   0.009  0.00  0.00    -0.047 A 
ATOM     20  C   LIG    1        1.190  -0.674   0.013  0.00  0.00    +0.003 A 
ATOM     21  C   LIG    1       -0.021  -0.008   0.035  0.00  0.00    +0.000 A 
ENDBRANCH  15  19
ENDBRANCH  14  15
ENDBRANCH  13  14
ENDBRANCH   1  13
TORSDOF 5
