REMARK  Name = ZINC08398793
REMARK                            x       y       z     vdW  Elec       q    Type
REMARK                         _______ _______ _______ _____ _____    ______ ____
ROOT
ATOM      1  C   LIG    1        5.885  -5.320  -0.056  0.00  0.00    +0.010 C 
ENDROOT
BRANCH   1   2
ATOM      2  C   LIG    1        5.206  -3.949  -0.045  0.00  0.00    +0.097 C 
BRANCH   2   5
ATOM      3  N   LIG    1        2.902  -3.050  -0.029  0.00  0.00    -0.206 N 
ATOM      4  H   LIG    1        3.283  -2.158  -0.025  0.00  0.00    +0.177 HD
ATOM      5  C   LIG    1        3.710  -4.128  -0.039  0.00  0.00    +0.232 C 
ATOM      6  O   LIG    1        3.234  -5.243  -0.043  0.00  0.00    -0.274 OA
BRANCH   3  16
ATOM      7  C   LIG    1       -0.018   1.461   0.010  0.00  0.00    +0.138 C 
ATOM      8  N   LIG    1        0.002  -0.004   0.002  0.00  0.00    -0.269 N 
ATOM      9  C   LIG    1       -1.136  -0.803   0.003  0.00  0.00    +0.046 A 
ATOM     10  C   LIG    1       -2.490  -0.482   0.011  0.00  0.00    +0.024 A 
ATOM     11  C   LIG    1       -3.439  -1.484   0.010  0.00  0.00    +0.002 A 
ATOM     12  C   LIG    1       -3.059  -2.816   0.002  0.00  0.00    +0.001 A 
ATOM     13  C   LIG    1       -1.720  -3.153  -0.006  0.00  0.00    +0.012 A 
ATOM     14  C   LIG    1       -0.756  -2.151  -0.006  0.00  0.00    +0.028 A 
ATOM     15  C   LIG    1        0.725  -2.168  -0.013  0.00  0.00    +0.153 C 
ATOM     16  N   LIG    1        1.511  -3.217  -0.023  0.00  0.00    -0.175 NA
ATOM     17  C   LIG    1        1.123  -0.746  -0.013  0.00  0.00    +0.271 C 
ATOM     18  O   LIG    1        2.263  -0.321  -0.022  0.00  0.00    -0.268 OA
ENDBRANCH   3  16
ENDBRANCH   2   5
ENDBRANCH   1   2
BRANCH   1  19
ATOM     19  C   LIG    1        7.404  -5.137  -0.062  0.00  0.00    +0.010 C 
BRANCH  19  20
ATOM     20  C   LIG    1        8.082  -6.509  -0.073  0.00  0.00    +0.097 C 
BRANCH  20  21
ATOM     21  C   LIG    1        9.579  -6.329  -0.079  0.00  0.00    +0.232 C 
ATOM     22  N   LIG    1       10.387  -7.407  -0.089  0.00  0.00    -0.206 N 
ATOM     23  H   LIG    1       10.005  -8.299  -0.093  0.00  0.00    +0.177 HD
ATOM     24  O   LIG    1       10.055  -5.214  -0.075  0.00  0.00    -0.274 OA
BRANCH  22  25
ATOM     25  N   LIG    1       11.778  -7.240  -0.095  0.00  0.00    -0.175 NA
ATOM     26  C   LIG    1       12.564  -8.289  -0.105  0.00  0.00    +0.153 C 
ATOM     27  C   LIG    1       14.045  -8.306  -0.106  0.00  0.00    +0.028 A 
ATOM     28  C   LIG    1       15.009  -7.304  -0.099  0.00  0.00    +0.012 A 
ATOM     29  C   LIG    1       16.348  -7.642  -0.102  0.00  0.00    +0.001 A 
ATOM     30  C   LIG    1       16.728  -8.973  -0.113  0.00  0.00    +0.002 A 
ATOM     31  C   LIG    1       15.778  -9.975  -0.121  0.00  0.00    +0.024 A 
ATOM     32  C   LIG    1       14.425  -9.655  -0.117  0.00  0.00    +0.046 A 
ATOM     33  N   LIG    1       13.287 -10.453  -0.123  0.00  0.00    -0.269 N 
ATOM     34  C   LIG    1       13.306 -11.918  -0.135  0.00  0.00    +0.138 C 
ATOM     35  C   LIG    1       12.166  -9.711  -0.111  0.00  0.00    +0.271 C 
ATOM     36  O   LIG    1       11.026 -10.136  -0.108  0.00  0.00    -0.268 OA
ENDBRANCH  22  25
ENDBRANCH  20  21
ENDBRANCH  19  20
ENDBRANCH   1  19
TORSDOF 7
