REMARK  Name = ZINC05934388
REMARK                            x       y       z     vdW  Elec       q    Type
REMARK                         _______ _______ _______ _____ _____    ______ ____
ROOT
ATOM      1  C   LIG    1        1.208  -0.679  -0.014  0.00  0.00    +0.000 A 
ATOM      2  C   LIG    1        0.002  -0.004   0.002  0.00  0.00    +0.000 A 
ATOM      3  C   LIG    1       -0.017   1.378   0.010  0.00  0.00    +0.006 A 
ATOM      4  C   LIG    1        1.171   2.086   0.002  0.00  0.00    -0.020 A 
ATOM      5  C   LIG    1        2.377   1.411  -0.014  0.00  0.00    +0.006 A 
ATOM      6  C   LIG    1        2.396   0.029  -0.021  0.00  0.00    +0.000 A 
ENDROOT
BRANCH   4   7
ATOM      7  C   LIG    1        1.151   3.592   0.010  0.00  0.00    +0.188 C 
ATOM      8 BR   LIG    1        2.219   4.254   1.522  0.00  0.00    -0.067 Br
BRANCH   7   9
ATOM      9  C   LIG    1        1.718   4.097  -1.251  0.00  0.00    +0.082 C 
ATOM     10  N   LIG    1        2.157   4.487  -2.224  0.00  0.00    -0.195 NA
ENDBRANCH   7   9
ENDBRANCH   4   7
TORSDOF 2
