REMARK  Name = ZINC06094157
REMARK                            x       y       z     vdW  Elec       q    Type
REMARK                         _______ _______ _______ _____ _____    ______ ____
ROOT
ATOM      1  C   LIG    1       -3.399   2.453   0.045  0.00  0.00    +0.047 A 
ATOM      2  C   LIG    1       -2.493   1.407   0.031  0.00  0.00    +0.030 A 
ATOM      3  C   LIG    1       -1.141   1.738   0.016  0.00  0.00    +0.047 A 
ATOM      4  C   LIG    1       -0.725   3.095   0.025  0.00  0.00    +0.006 A 
ATOM      5  C   LIG    1        0.721   3.067   0.011  0.00  0.00    -0.022 A 
ATOM      6  C   LIG    1        1.097   1.768   0.001  0.00  0.00    +0.017 A 
ATOM      7  CA  LIG    1        2.542   1.330  -0.012  0.00  0.00    +0.087 C 
ATOM      8  N   LIG    1        3.390   2.472   0.397  0.00  0.00    +0.392 N 
ATOM      9  H1  LIG    1        3.223   2.678   1.389  0.00  0.00    -0.084 HD
ATOM     10  H2  LIG    1        4.377   2.226   0.259  0.00  0.00    -0.084 HD
ATOM     11  C   LIG    1        3.071   3.669  -0.409  0.00  0.00    -0.076 C 
ATOM     12  C   LIG    1        1.698   4.216   0.005  0.00  0.00    +0.018 C 
ATOM     13  C   LIG    1       -1.655   4.139   0.039  0.00  0.00    +0.055 A 
ATOM     14  N   LIG    1       -0.011   0.966   0.007  0.00  0.00    -0.359 N 
ATOM     15  H   LIG    1        0.002  -0.004   0.002  0.00  0.00    +0.166 HD
ATOM     16  C   LIG    1       -2.995   3.782   0.049  0.00  0.00    +0.118 A 
ENDROOT
BRANCH   7  17
ATOM     17  C   LIG    1        2.737   0.195   0.960  0.00  0.00    +0.296 C 
ATOM     18  O   LIG    1        3.203   0.410   2.054  0.00  0.00    -0.252 OA
BRANCH  17  19
ATOM     19  OXT LIG    1        2.392  -1.054   0.611  0.00  0.00    -0.481 OA
ATOM     20  HXT LIG    1        2.030  -1.221  -0.237  0.00  0.00    +0.295 HD
ENDBRANCH  17  19
ENDBRANCH   7  17
BRANCH  16  21
ATOM     21  O   LIG    1       -3.940   4.760   0.063  0.00  0.00    -0.507 OA
ATOM     22  H   LIG    1       -4.221   5.048  -0.816  0.00  0.00    +0.292 HD
ENDBRANCH  16  21
TORSDOF 3
