REMARK  Name = ZINC06675630
REMARK                            x       y       z     vdW  Elec       q    Type
REMARK                         _______ _______ _______ _____ _____    ______ ____
ROOT
ATOM      1  C   LIG    1        2.859  -0.454  -2.507  0.00  0.00    +0.219 A 
ATOM      2  N   LIG    1        2.970   0.207  -3.612  0.00  0.00    -0.137 NA
ATOM      3  N   LIG    1        3.692  -0.584  -4.517  0.00  0.00    -0.237 N 
ATOM      4  H   LIG    1        3.931  -0.351  -5.428  0.00  0.00    +0.193 HD
ATOM      5  C   LIG    1        3.990  -1.735  -3.876  0.00  0.00    +0.264 A 
ATOM      6  S   LIG    1        4.863  -3.059  -4.520  0.00  0.00    +0.011 S 
ATOM      7  O   LIG    1        3.478  -1.644  -2.637  0.00  0.00    -0.416 OA
ENDROOT
BRANCH   1  11
ATOM      8  C   LIG    1       -0.019   1.526   0.010  0.00  0.00    +0.000 C 
ATOM      9  C   LIG    1        1.417   2.055  -0.000  0.00  0.00    +0.001 C 
ATOM     10  C   LIG    1        2.133   1.562  -1.259  0.00  0.00    +0.013 C 
ATOM     11  C   LIG    1        2.154   0.032  -1.268  0.00  0.00    +0.077 C 
ATOM     12  C   LIG    1        0.718  -0.497  -1.257  0.00  0.00    +0.013 C 
ATOM     13  C   LIG    1        0.002  -0.004   0.002  0.00  0.00    +0.001 C 
ENDBRANCH   1  11
TORSDOF 1
