REMARK  Name = ZINC06091650
REMARK                            x       y       z     vdW  Elec       q    Type
REMARK                         _______ _______ _______ _____ _____    ______ ____
ROOT
ATOM      1  C   LIG    1       -0.017   1.374   0.010  0.00  0.00    +0.007 A 
ATOM      2  C   LIG    1        1.052   2.265   0.004  0.00  0.00    +0.049 A 
ATOM      3  C   LIG    1        2.406   1.990  -0.010  0.00  0.00    +0.167 A 
ATOM      4  C   LIG    1        3.046   0.730  -0.023  0.00  0.00    +0.265 A 
ATOM      5  O   LIG    1        4.271   0.751  -0.035  0.00  0.00    -0.280 OA
ATOM      6  C   LIG    1        2.453  -0.546  -0.025  0.00  0.00    +0.210 A 
ATOM      7  C   LIG    1        1.099  -0.866  -0.014  0.00  0.00    +0.162 A 
ATOM      8  C   LIG    1        0.002  -0.004   0.002  0.00  0.00    +0.049 A 
ENDROOT
BRANCH   3   9
ATOM      9  O   LIG    1        3.227   3.070  -0.013  0.00  0.00    -0.503 OA
ATOM     10  H   LIG    1        4.168   2.848  -0.023  0.00  0.00    +0.292 HD
ENDBRANCH   3   9
BRANCH   6  11
ATOM     11  O   LIG    1        3.311  -1.598  -0.039  0.00  0.00    -0.501 OA
ATOM     12  H   LIG    1        4.236  -1.449  -0.047  0.00  0.00    +0.292 HD
ENDBRANCH   6  11
BRANCH   7  13
ATOM     13  O   LIG    1        0.807  -2.191  -0.019  0.00  0.00    -0.503 OA
ATOM     14  H   LIG    1        1.499  -2.823  -0.029  0.00  0.00    +0.292 HD
ENDBRANCH   7  13
TORSDOF 3
