REMARK  Name = ZINC08195655
REMARK                            x       y       z     vdW  Elec       q    Type
REMARK                         _______ _______ _______ _____ _____    ______ ____
ROOT
ATOM      1  C   LIG    1        2.683  -4.357  -0.604  0.00  0.00    +0.232 C 
ATOM      2  C   LIG    1        2.224  -5.247   0.575  0.00  0.00    +0.107 C 
ATOM      3  C   LIG    1        2.875  -4.654   1.792  0.00  0.00    -0.013 C 
ATOM      4  C   LIG    1        3.125  -5.410   3.055  0.00  0.00    +0.242 C 
ATOM      5  C   LIG    1        1.946  -6.388   3.278  0.00  0.00    +0.182 C 
ATOM      6  C   LIG    1        2.382  -6.839   4.700  0.00  0.00    +0.195 C 
ATOM      7  C   LIG    1        1.925  -8.271   4.985  0.00  0.00    +0.057 C 
ATOM      8  C   LIG    1        3.909  -6.760   4.596  0.00  0.00    +0.343 C 
ATOM      9  O   LIG    1        4.689  -7.116   5.447  0.00  0.00    -0.247 OA
ATOM     10  C   LIG    1        0.598  -5.875   3.082  0.00  0.00    +0.219 C 
ATOM     11  C   LIG    1        0.103  -6.140   1.663  0.00  0.00    +0.096 C 
ATOM     12  O   LIG    1        4.249  -6.218   3.378  0.00  0.00    -0.452 OA
ATOM     13  C   LIG    1        3.248  -3.418   1.555  0.00  0.00    -0.026 C 
ATOM     14  C   LIG    1        3.907  -2.517   2.568  0.00  0.00    +0.043 C 
ATOM     15  C   LIG    1        0.707  -5.165   0.693  0.00  0.00    +0.124 C 
ATOM     16  C   LIG    1        0.331  -3.748   1.132  0.00  0.00    +0.056 C 
ATOM     17  C   LIG    1        2.932  -3.018   0.133  0.00  0.00    +0.244 C 
ENDROOT
BRANCH   6  18
ATOM     18  O   LIG    1        1.889  -5.939   5.696  0.00  0.00    -0.375 OA
ATOM     19  H   LIG    1        2.136  -6.179   6.599  0.00  0.00    +0.211 HD
ENDBRANCH   6  18
BRANCH   5  20
ATOM     20  O   LIG    1        2.140  -7.489   2.389  0.00  0.00    -0.378 OA
ATOM     21  H   LIG    1        1.515  -8.216   2.520  0.00  0.00    +0.211 HD
ENDBRANCH   5  20
BRANCH   1  22
ATOM     22  O   LIG    1        3.908  -4.864  -1.198  0.00  0.00    -0.457 OA
BRANCH  22  23
ATOM     23  C   LIG    1        4.165  -4.502  -2.465  0.00  0.00    +0.307 C 
ATOM     24  O   LIG    1        3.393  -3.786  -3.058  0.00  0.00    -0.251 OA
BRANCH  23  25
ATOM     25  C   LIG    1        5.416  -4.989  -3.149  0.00  0.00    +0.120 C 
BRANCH  25  26
ATOM     26  C   LIG    1        5.467  -4.435  -4.574  0.00  0.00    +0.011 C 
BRANCH  26  27
ATOM     27  C   LIG    1        6.738  -4.929  -5.268  0.00  0.00    +0.001 C 
BRANCH  27  28
ATOM     28  C   LIG    1        6.789  -4.376  -6.694  0.00  0.00    +0.000 C 
BRANCH  28  29
ATOM     29  C   LIG    1        8.060  -4.870  -7.387  0.00  0.00    -0.000 C 
BRANCH  29  31
ATOM     30  C   LIG    1        9.382  -4.811  -9.507  0.00  0.00    +0.004 C 
ATOM     31  C   LIG    1        8.111  -4.317  -8.813  0.00  0.00    -0.003 C 
ENDBRANCH  29  31
ENDBRANCH  28  29
ENDBRANCH  27  28
ENDBRANCH  26  27
ENDBRANCH  25  26
ENDBRANCH  23  25
ENDBRANCH  22  23
ENDBRANCH   1  22
BRANCH  10  32
ATOM     32  O   LIG    1        0.594  -4.443   3.327  0.00  0.00    -0.458 OA
BRANCH  32  33
ATOM     33  C   LIG    1       -0.531  -3.915   3.834  0.00  0.00    +0.307 C 
ATOM     34  O   LIG    1       -1.481  -4.625   4.066  0.00  0.00    -0.251 OA
BRANCH  33  35
ATOM     35  C   LIG    1       -0.609  -2.436   4.115  0.00  0.00    +0.120 C 
BRANCH  35  36
ATOM     36  C   LIG    1       -1.988  -2.097   4.684  0.00  0.00    +0.008 C 
ATOM     37  C   LIG    1       -2.068  -0.596   4.969  0.00  0.00    +0.004 C 
ENDBRANCH  35  36
ENDBRANCH  33  35
ENDBRANCH  32  33
ENDBRANCH  10  32
BRANCH  15  38
ATOM     38  O   LIG    1        0.130  -5.403  -0.618  0.00  0.00    -0.458 OA
BRANCH  38  39
ATOM     39  C   LIG    1        0.398  -6.584  -1.196  0.00  0.00    +0.304 C 
ATOM     40  C   LIG    1       -0.107  -6.875  -2.586  0.00  0.00    +0.136 C 
ATOM     41  O   LIG    1        1.044  -7.415  -0.602  0.00  0.00    -0.251 OA
ENDBRANCH  38  39
ENDBRANCH  15  38
BRANCH  17  42
ATOM     42  O   LIG    1        1.740  -2.189   0.093  0.00  0.00    -0.450 OA
BRANCH  42  43
ATOM     43  C   LIG    1        1.921  -0.854   0.137  0.00  0.00    +0.335 C 
ATOM     44  O   LIG    1        3.044  -0.395   0.207  0.00  0.00    -0.245 OA
BRANCH  43  45
ATOM     45  C   LIG    1        0.760   0.047   0.101  0.00  0.00    +0.029 C 
ATOM     46  C   LIG    1       -0.632  -0.522   0.015  0.00  0.00    +0.051 C 
ATOM     47  C   LIG    1        0.939   1.365   0.144  0.00  0.00    -0.020 C 
ATOM     48  C   LIG    1        2.332   1.934   0.231  0.00  0.00    +0.036 C 
ENDBRANCH  43  45
ENDBRANCH  42  43
ENDBRANCH  17  42
TORSDOF 19
