REMARK  Name = ZINC06093177
REMARK                            x       y       z     vdW  Elec       q    Type
REMARK                         _______ _______ _______ _____ _____    ______ ____
ROOT
ATOM      1  C   LIG    1       -0.729   1.579   1.267  0.00  0.00    +0.012 C 
ENDROOT
BRANCH   1   8
ATOM      2  C   LIG    1       -2.235  -0.416   1.390  0.00  0.00    +0.006 A 
ATOM      3  C   LIG    1       -3.492  -0.985   1.463  0.00  0.00    +0.038 A 
ATOM      4  C   LIG    1       -4.617  -0.178   1.474  0.00  0.00    +0.123 A 
ATOM      5  F   LIG    1       -5.847  -0.734   1.539  0.00  0.00    -0.205 F 
ATOM      6  C   LIG    1       -4.482   1.198   1.418  0.00  0.00    +0.038 A 
ATOM      7  C   LIG    1       -3.223   1.766   1.351  0.00  0.00    +0.006 A 
ATOM      8  C   LIG    1       -2.100   0.959   1.340  0.00  0.00    -0.045 A 
ENDBRANCH   1   8
BRANCH   1   9
ATOM      9  C   LIG    1       -0.013   1.086   0.008  0.00  0.00    -0.078 C 
BRANCH   9  10
ATOM     10  N   LIG    1       -0.746   1.561  -1.179  0.00  0.00    +0.379 N 
ATOM     11  H   LIG    1       -1.694   1.168  -1.169  0.00  0.00    -0.090 HD
ATOM     12  H   LIG    1       -0.269   1.260  -2.027  0.00  0.00    -0.090 HD
ATOM     13  H   LIG    1       -0.807   2.578  -1.167  0.00  0.00    -0.090 HD
ENDBRANCH   9  10
ENDBRANCH   1   9
BRANCH   1  14
ATOM     14  C   LIG    1        0.079   1.179   2.503  0.00  0.00    +0.126 C 
BRANCH  14  15
ATOM     15  C   LIG    1        1.404   1.896   2.491  0.00  0.00    +0.305 C 
ATOM     16  O   LIG    1        1.675   2.650   1.587  0.00  0.00    -0.251 OA
BRANCH  15  17
ATOM     17  O   LIG    1        2.284   1.697   3.486  0.00  0.00    -0.481 OA
ATOM     18  H   LIG    1        2.073   1.112   4.187  0.00  0.00    +0.295 HD
ENDBRANCH  15  17
ENDBRANCH  14  15
ENDBRANCH   1  14
TORSDOF 6
