REMARK  Name = ZINC06473379
REMARK                            x       y       z     vdW  Elec       q    Type
REMARK                         _______ _______ _______ _____ _____    ______ ____
ROOT
ATOM      1  C   LIG    1       -0.017   1.382   0.010  0.00  0.00    +0.034 A 
ATOM      2  C   LIG    1        1.161   2.100   0.002  0.00  0.00    +0.028 A 
ATOM      3  C   LIG    1        2.381   1.435  -0.013  0.00  0.00    +0.051 A 
ATOM      4  C   LIG    1        2.398   0.032  -0.021  0.00  0.00    +0.033 A 
ATOM      5  C   LIG    1        3.821  -0.361  -0.036  0.00  0.00    +0.150 A 
ATOM      6  C   LIG    1        4.551   0.829  -0.037  0.00  0.00    +0.219 A 
ATOM      7  C   LIG    1        1.203  -0.682  -0.013  0.00  0.00    +0.044 A 
ATOM      8  N   LIG    1        3.693   1.878  -0.023  0.00  0.00    -0.324 N 
ATOM      9  H   LIG    1        3.961   2.810  -0.021  0.00  0.00    +0.169 HD
ATOM     10  C   LIG    1        0.002  -0.004   0.002  0.00  0.00    +0.122 A 
ENDROOT
BRANCH   5  11
ATOM     11  N   LIG    1        4.312  -1.607  -0.048  0.00  0.00    -0.175 NA
ATOM     12  N   LIG    1        5.588  -1.797  -0.061  0.00  0.00    -0.218 N 
ATOM     13  H   LIG    1        6.191  -1.037  -0.063  0.00  0.00    +0.176 HD
BRANCH  12  14
ATOM     14  C   LIG    1        6.082  -3.050  -0.072  0.00  0.00    +0.147 C 
ATOM     15  S   LIG    1        7.775  -3.303  -0.090  0.00  0.00    -0.017 S 
BRANCH  14  16
ATOM     16  N   LIG    1        5.244  -4.106  -0.070  0.00  0.00    -0.339 N 
ATOM     17  H   LIG    1        5.599  -5.008  -0.079  0.00  0.00    +0.144 HD
ATOM     18  H   LIG    1        4.284  -3.962  -0.060  0.00  0.00    +0.144 HD
ENDBRANCH  14  16
ENDBRANCH  12  14
ENDBRANCH   5  11
BRANCH   6  19
ATOM     19  O   LIG    1        5.898   0.920  -0.049  0.00  0.00    -0.492 OA
ATOM     20  H   LIG    1        6.282   0.952  -0.936  0.00  0.00    +0.294 HD
ENDBRANCH   6  19
BRANCH  10  21
ATOM     21  N   LIG    1       -1.271  -0.759   0.010  0.00  0.00    +0.006 N 
ATOM     22  O   LIG    1       -2.325  -0.167   0.023  0.00  0.00    -0.130 OA
BRANCH  21  23
ATOM     23  O   LIG    1       -1.257  -1.968   0.004  0.00  0.00    -0.396 OA
ATOM     24  H   LIG    1       -0.440  -2.427  -0.007  0.00  0.00    +0.329 HD
ENDBRANCH  21  23
ENDBRANCH  10  21
TORSDOF 6
