REMARK  Name = ZINC06733279
REMARK                            x       y       z     vdW  Elec       q    Type
REMARK                         _______ _______ _______ _____ _____    ______ ____
ROOT
ATOM      1  N   LIG    1        1.789  -5.388   2.729  0.00  0.00    -0.303 N 
ATOM      2  C   LIG    1        0.503  -5.776   2.429  0.00  0.00    +0.166 A 
ATOM      3  C   LIG    1       -0.080  -4.699   1.741  0.00  0.00    +0.148 A 
ATOM      4  N   LIG    1        0.855  -3.719   1.658  0.00  0.00    -0.216 NA
ATOM      5  C   LIG    1       -1.408  -4.830   1.306  0.00  0.00    +0.147 A 
ATOM      6  N   LIG    1       -2.050  -5.965   1.565  0.00  0.00    -0.219 NA
ATOM      7  C   LIG    1       -1.460  -6.951   2.215  0.00  0.00    +0.225 A 
ATOM      8  N   LIG    1       -0.217  -6.871   2.642  0.00  0.00    -0.216 NA
ATOM      9  C   LIG    1        1.958  -4.120   2.243  0.00  0.00    +0.176 A 
ENDROOT
BRANCH   5  10
ATOM     10  N   LIG    1       -2.036  -3.801   0.622  0.00  0.00    -0.341 N 
ATOM     11  H   LIG    1       -2.954  -3.904   0.327  0.00  0.00    +0.144 HD
ATOM     12  H   LIG    1       -2.057  -2.984   1.198  0.00  0.00    +0.144 HD
ENDBRANCH   5  10
BRANCH   1  13
ATOM     13  C   LIG    1        2.791  -6.185   3.441  0.00  0.00    +0.127 C 
BRANCH  13  14
ATOM     14  C   LIG    1        2.678  -5.920   4.944  0.00  0.00    +0.034 C 
BRANCH  14  15
ATOM     15  C   LIG    1        3.725  -6.752   5.688  0.00  0.00    +0.090 C 
BRANCH  15  17
ATOM     16  C   LIG    1        3.531  -6.295   8.287  0.00  0.00    +0.004 C 
ATOM     17  C   LIG    1        3.617  -6.498   7.134  0.00  0.00    -0.106 C 
ENDBRANCH  15  17
ENDBRANCH  14  15
ENDBRANCH  13  14
ENDBRANCH   1  13
BRANCH   9  18
ATOM     18  S   LIG    1        3.437  -3.172   2.376  0.00  0.00    -0.050 S 
BRANCH  18  19
ATOM     19  C   LIG    1        2.987  -1.766   1.413  0.00  0.00    +0.033 A 
ATOM     20  C   LIG    1        2.645  -0.575   2.041  0.00  0.00    +0.065 A 
ATOM     21  C   LIG    1        2.292   0.529   1.284  0.00  0.00    +0.167 A 
ATOM     22  C   LIG    1        2.281   0.443  -0.107  0.00  0.00    +0.167 A 
ATOM     23  O   LIG    1        1.903   1.654  -0.615  0.00  0.00    -0.453 OA
ATOM     24  C   LIG    1        2.078   2.594   0.461  0.00  0.00    +0.466 C 
ATOM     25  C   LIG    1        2.623  -0.746  -0.729  0.00  0.00    +0.066 A 
ATOM     26  O   LIG    1        1.921   1.792   1.646  0.00  0.00    -0.453 OA
ATOM     27  C   LIG    1        2.975  -1.849   0.027  0.00  0.00    +0.035 A 
ATOM     28 BR   LIG    1        3.442  -3.470  -0.827  0.00  0.00    -0.049 Br
ENDBRANCH  18  19
ENDBRANCH   9  18
TORSDOF 7
