REMARK  Name = ZINC06919103
REMARK                            x       y       z     vdW  Elec       q    Type
REMARK                         _______ _______ _______ _____ _____    ______ ____
ROOT
ATOM      1  C   LIG    1        6.404   5.921  -0.916  0.00  0.00    +0.250 C 
ATOM      2  N   LIG    1        5.147   5.435  -0.913  0.00  0.00    -0.261 N 
ATOM      3  H   LIG    1        4.297   6.109  -0.731  0.00  0.00    +0.157 HD
ATOM      4  O   LIG    1        7.344   5.176  -1.117  0.00  0.00    -0.270 OA
ENDROOT
BRANCH   1   8
ATOM      5  C   LIG    1        7.083  10.056  -0.227  0.00  0.00    +0.121 A 
ATOM      6  C   LIG    1        8.159   9.206  -0.456  0.00  0.00    +0.046 A 
ATOM      7  C   LIG    1        7.943   7.864  -0.680  0.00  0.00    +0.016 A 
ATOM      8  C   LIG    1        6.640   7.358  -0.677  0.00  0.00    +0.037 A 
ATOM      9  C   LIG    1        5.561   8.217  -0.452  0.00  0.00    +0.016 A 
ATOM     10  C   LIG    1        5.786   9.556  -0.222  0.00  0.00    +0.046 A 
BRANCH   5  11
ATOM     11  O   LIG    1        7.301  11.377  -0.006  0.00  0.00    -0.489 OA
BRANCH  11  13
ATOM     12  C   LIG    1        9.218  12.063  -1.308  0.00  0.00    +0.051 C 
ATOM     13  C   LIG    1        8.661  11.804   0.093  0.00  0.00    +0.167 C 
ATOM     14  C   LIG    1        8.733  13.091   0.917  0.00  0.00    +0.051 C 
ENDBRANCH  11  13
ENDBRANCH   5  11
ENDBRANCH   1   8
BRANCH   2  15
ATOM     15  C   LIG    1        4.925   4.083  -1.138  0.00  0.00    +0.165 A 
ATOM     16  N   LIG    1        3.785   3.419  -1.175  0.00  0.00    -0.223 NA
ATOM     17  C   LIG    1        3.756   2.115  -1.405  0.00  0.00    +0.098 A 
ATOM     18  C   LIG    1        4.931   1.443  -1.605  0.00  0.00    +0.078 A 
ATOM     19  S   LIG    1        6.107   2.781  -1.456  0.00  0.00    -0.060 S 
BRANCH  17  20
ATOM     20  C   LIG    1        2.464   1.390  -1.441  0.00  0.00    +0.090 A 
ATOM     21  C   LIG    1        1.274   2.087  -1.232  0.00  0.00    +0.030 A 
ATOM     22  C   LIG    1        0.076   1.397  -1.269  0.00  0.00    +0.004 A 
ATOM     23  C   LIG    1        0.105   0.030  -1.515  0.00  0.00    +0.020 A 
ATOM     24  C   LIG    1        1.320  -0.597  -1.713  0.00  0.00    +0.111 A 
ATOM     25  N   LIG    1        2.448   0.083  -1.673  0.00  0.00    -0.253 NA
ENDBRANCH  17  20
ENDBRANCH   2  15
TORSDOF 5
