REMARK  Name = ZINC05958728
REMARK                            x       y       z     vdW  Elec       q    Type
REMARK                         _______ _______ _______ _____ _____    ______ ____
ROOT
ATOM      1  C   LIG    1        1.111   2.018  -0.044  0.00  0.00    +0.162 A 
ATOM      2  C   LIG    1        2.333   1.373   0.010  0.00  0.00    +0.060 A 
ATOM      3  C   LIG    1        2.411   0.015  -0.282  0.00  0.00    +0.012 A 
ATOM      4  C   LIG    1        1.260  -0.705  -0.630  0.00  0.00    +0.045 A 
ATOM      5  N   LIG    1        1.605  -2.031  -0.872  0.00  0.00    -0.281 N 
ATOM      6  H   LIG    1        0.974  -2.722  -1.128  0.00  0.00    +0.155 HD
ATOM      7  C   LIG    1        2.922  -2.234  -0.704  0.00  0.00    +0.249 C 
ATOM      8  O   LIG    1        3.508  -3.292  -0.845  0.00  0.00    -0.270 OA
ATOM      9  C   LIG    1        0.037  -0.045  -0.680  0.00  0.00    +0.073 A 
ATOM     10  C   LIG    1        3.533  -0.951  -0.317  0.00  0.00    +0.047 C 
ATOM     11  C   LIG    1        4.848  -0.705  -0.048  0.00  0.00    +0.021 C 
ATOM     12  C   LIG    1       -0.036   1.306  -0.389  0.00  0.00    +0.163 A 
ENDROOT
BRANCH  11  13
ATOM     13  C   LIG    1        5.797  -1.819   0.048  0.00  0.00    -0.024 A 
ATOM     14  C   LIG    1        5.414  -3.019   0.661  0.00  0.00    +0.011 A 
ATOM     15  C   LIG    1        6.307  -4.062   0.745  0.00  0.00    +0.046 A 
ATOM     16  C   LIG    1        7.592  -3.923   0.231  0.00  0.00    +0.117 A 
ATOM     17  C   LIG    1        7.980  -2.733  -0.375  0.00  0.00    +0.046 A 
ATOM     18  C   LIG    1        7.093  -1.685  -0.468  0.00  0.00    +0.011 A 
BRANCH  16  19
ATOM     19  O   LIG    1        8.471  -4.954   0.321  0.00  0.00    -0.507 OA
ATOM     20  H   LIG    1        9.005  -4.946   1.127  0.00  0.00    +0.292 HD
ENDBRANCH  16  19
ENDBRANCH  11  13
BRANCH   1  22
ATOM     21  C   LIG    1        2.245   4.012   0.587  0.00  0.00    +0.277 C 
ATOM     22  O   LIG    1        1.029   3.346   0.241  0.00  0.00    -0.491 OA
ENDBRANCH   1  22
BRANCH  12  23
ATOM     23  O   LIG    1       -1.235   1.945  -0.446  0.00  0.00    -0.491 OA
ATOM     24  C   LIG    1       -2.372   1.160  -0.812  0.00  0.00    +0.277 C 
ENDBRANCH  12  23
TORSDOF 4
