REMARK  Name = ZINC06094108
REMARK                            x       y       z     vdW  Elec       q    Type
REMARK                         _______ _______ _______ _____ _____    ______ ____
ROOT
ATOM      1  C   LIG    1       -0.017   1.382   0.010  0.00  0.00    +0.016 A 
ATOM      2  C   LIG    1        1.157   2.104   0.002  0.00  0.00    +0.029 A 
ATOM      3  C   LIG    1        2.388   1.438  -0.013  0.00  0.00    +0.077 A 
ATOM      4  C   LIG    1        2.397   0.028  -0.021  0.00  0.00    +0.034 A 
ATOM      5  C   LIG    1        3.826  -0.359  -0.038  0.00  0.00    +0.152 C 
ATOM      6  C   LIG    1        4.548   0.927  -0.038  0.00  0.00    +0.241 C 
ATOM      7  N   LIG    1        4.334  -1.570  -0.050  0.00  0.00    -0.175 NA
ATOM      8  C   LIG    1        1.206  -0.683  -0.013  0.00  0.00    +0.026 A 
ATOM      9  N   LIG    1        3.668   1.894  -0.024  0.00  0.00    -0.211 NA
ATOM     10  C   LIG    1        0.002  -0.004   0.002  0.00  0.00    +0.014 A 
ATOM     11  I   LIG    1       -1.800  -1.073   0.013  0.00  0.00    -0.044 I 
ENDROOT
BRANCH   6  12
ATOM     12  O   LIG    1        5.894   1.081  -0.052  0.00  0.00    -0.491 OA
ATOM     13  H   LIG    1        6.452   0.328  -0.062  0.00  0.00    +0.294 HD
ENDBRANCH   6  12
BRANCH   7  14
ATOM     14  N   LIG    1        5.613  -1.733  -0.064  0.00  0.00    -0.218 N 
ATOM     15  H   LIG    1        6.200  -0.960  -0.066  0.00  0.00    +0.176 HD
BRANCH  14  16
ATOM     16  C   LIG    1        6.135  -2.975  -0.077  0.00  0.00    +0.147 C 
ATOM     17  S   LIG    1        7.833  -3.191  -0.095  0.00  0.00    -0.017 S 
BRANCH  16  18
ATOM     18  N   LIG    1        5.319  -4.048  -0.075  0.00  0.00    -0.339 N 
ATOM     19  H   LIG    1        5.694  -4.943  -0.084  0.00  0.00    +0.144 HD
ATOM     20  H   LIG    1        4.357  -3.926  -0.065  0.00  0.00    +0.144 HD
ENDBRANCH  16  18
ENDBRANCH  14  16
ENDBRANCH   7  14
TORSDOF 4
