REMARK  Name = ZINC06096446
REMARK                            x       y       z     vdW  Elec       q    Type
REMARK                         _______ _______ _______ _____ _____    ______ ____
ROOT
ATOM      1  C   LIG    1        5.271  -1.578  -1.685  0.00  0.00    +0.251 A 
ATOM      2  C   LIG    1        6.031  -1.591  -2.945  0.00  0.00    +0.208 A 
ATOM      3  C   LIG    1        7.303  -2.335  -2.945  0.00  0.00    +0.154 A 
ATOM      4  N   LIG    1        7.667  -2.943  -1.824  0.00  0.00    -0.198 NA
ATOM      5  C   LIG    1        6.923  -2.887  -0.730  0.00  0.00    +0.217 A 
ATOM      6  N   LIG    1        5.770  -2.236  -0.651  0.00  0.00    -0.178 NA
ENDROOT
BRANCH   3   7
ATOM      7  N   LIG    1        8.084  -2.401  -4.071  0.00  0.00    -0.341 N 
ATOM      8  H   LIG    1        7.763  -1.893  -4.993  0.00  0.00    +0.144 HD
ATOM      9  H   LIG    1        9.031  -2.960  -4.052  0.00  0.00    +0.144 HD
ENDBRANCH   3   7
BRANCH   5  10
ATOM     10  N   LIG    1        7.371  -3.545   0.391  0.00  0.00    -0.327 N 
ATOM     11  H   LIG    1        8.322  -4.096   0.361  0.00  0.00    +0.145 HD
ATOM     12  H   LIG    1        6.778  -3.520   1.317  0.00  0.00    +0.145 HD
ENDBRANCH   5  10
BRANCH   2  13
ATOM     13  N   LIG    1        5.596  -0.962  -4.024  0.00  0.00    -0.022 NA
ATOM     14  O   LIG    1        6.005  -1.286  -5.125  0.00  0.00    -0.143 OA
ENDBRANCH   2  13
BRANCH   1  15
ATOM     15  O   LIG    1        4.096  -0.920  -1.589  0.00  0.00    -0.470 OA
BRANCH  15  16
ATOM     16  C   LIG    1        3.426  -0.969  -0.328  0.00  0.00    +0.266 C 
BRANCH  16  20
ATOM     17  C   LIG    1       -0.213   1.256  -0.561  0.00  0.00    +0.000 A 
ATOM     18  C   LIG    1        0.957   1.884  -0.176  0.00  0.00    +0.000 A 
ATOM     19  C   LIG    1        2.135   1.164  -0.101  0.00  0.00    +0.007 A 
ATOM     20  C   LIG    1        2.142  -0.184  -0.410  0.00  0.00    -0.010 A 
ATOM     21  C   LIG    1        0.972  -0.811  -0.794  0.00  0.00    +0.007 A 
ATOM     22  C   LIG    1       -0.206  -0.091  -0.870  0.00  0.00    +0.000 A 
ENDBRANCH  16  20
ENDBRANCH  15  16
ENDBRANCH   1  15
TORSDOF 6
