REMARK  Name = ZINC08445939
REMARK                            x       y       z     vdW  Elec       q    Type
REMARK                         _______ _______ _______ _____ _____    ______ ____
ROOT
ATOM      1  C   LIG    1        2.439  -1.277   2.333  0.00  0.00    +0.097 A 
ATOM      2  C   LIG    1        2.012  -0.126   1.704  0.00  0.00    +0.054 A 
ATOM      3  C   LIG    1        2.944   0.573   0.839  0.00  0.00    +0.037 A 
ATOM      4  C   LIG    1        2.732   1.768   0.083  0.00  0.00    -0.004 A 
ATOM      5  C   LIG    1        3.768   2.263  -0.692  0.00  0.00    +0.037 A 
ATOM      6  C   LIG    1        4.993   1.596  -0.730  0.00  0.00    +0.073 A 
ATOM      7  N   LIG    1        5.174   0.485  -0.027  0.00  0.00    -0.239 NA
ATOM      8  C   LIG    1        4.220  -0.023   0.722  0.00  0.00    +0.112 A 
ATOM      9  S   LIG    1        4.119  -1.456   1.766  0.00  0.00    -0.062 S 
ENDROOT
BRANCH   4  10
ATOM     10  C   LIG    1        1.428   2.468   0.131  0.00  0.00    -0.013 A 
ATOM     11  C   LIG    1        0.895   2.870   1.356  0.00  0.00    +0.012 A 
ATOM     12  C   LIG    1       -0.321   3.518   1.401  0.00  0.00    +0.050 A 
ATOM     13  C   LIG    1       -1.014   3.780   0.228  0.00  0.00    +0.162 A 
ATOM     14  C   LIG    1       -0.488   3.381  -0.999  0.00  0.00    +0.162 A 
ATOM     15  C   LIG    1        0.729   2.727  -1.049  0.00  0.00    +0.058 A 
BRANCH  14  16
ATOM     16  O   LIG    1       -1.171   3.636  -2.147  0.00  0.00    -0.491 OA
ATOM     17  C   LIG    1       -0.572   3.199  -3.368  0.00  0.00    +0.277 C 
ENDBRANCH  14  16
BRANCH  13  18
ATOM     18  O   LIG    1       -2.211   4.423   0.276  0.00  0.00    -0.484 OA
BRANCH  18  19
ATOM     19  C   LIG    1       -2.691   4.804   1.567  0.00  0.00    +0.264 C 
BRANCH  19  20
ATOM     20  C   LIG    1       -4.020   5.499   1.423  0.00  0.00    -0.010 A 
ATOM     21  C   LIG    1       -4.069   6.871   1.261  0.00  0.00    +0.007 A 
ATOM     22  C   LIG    1       -5.288   7.508   1.124  0.00  0.00    +0.000 A 
ATOM     23  C   LIG    1       -6.459   6.774   1.159  0.00  0.00    +0.000 A 
ATOM     24  C   LIG    1       -6.411   5.403   1.327  0.00  0.00    +0.000 A 
ATOM     25  C   LIG    1       -5.191   4.765   1.459  0.00  0.00    +0.007 A 
ENDBRANCH  19  20
ENDBRANCH  18  19
ENDBRANCH  13  18
ENDBRANCH   4  10
BRANCH   6  26
ATOM     26  C   LIG    1        6.098   2.132  -1.560  0.00  0.00    +0.000 A 
ATOM     27  C   LIG    1        5.913   3.295  -2.306  0.00  0.00    +0.010 A 
ATOM     28  C   LIG    1        6.947   3.792  -3.073  0.00  0.00    +0.001 A 
ATOM     29  C   LIG    1        8.162   3.132  -3.111  0.00  0.00    +0.000 A 
ATOM     30  C   LIG    1        8.350   1.974  -2.378  0.00  0.00    +0.001 A 
ATOM     31  C   LIG    1        7.325   1.471  -1.603  0.00  0.00    +0.010 A 
ENDBRANCH   6  26
BRANCH   1  34
ATOM     32  N   LIG    1        2.305  -3.209   3.740  0.00  0.00    -0.278 N 
ATOM     33  H   LIG    1        3.246  -3.379   3.577  0.00  0.00    +0.155 HD
ATOM     34  C   LIG    1        1.717  -2.115   3.217  0.00  0.00    +0.257 C 
ATOM     35  O   LIG    1        0.564  -1.847   3.505  0.00  0.00    -0.269 OA
BRANCH  32  42
ATOM     36  C   LIG    1        2.201  -4.960   5.407  0.00  0.00    +0.141 A 
ATOM     37  C   LIG    1        1.457  -5.836   6.181  0.00  0.00    +0.049 A 
ATOM     38  C   LIG    1        0.079  -5.864   6.064  0.00  0.00    +0.024 A 
ATOM     39  C   LIG    1       -0.560  -5.013   5.179  0.00  0.00    +0.043 A 
ATOM     40 CL   LIG    1       -2.290  -5.053   5.037  0.00  0.00    -0.083 Cl
ATOM     41  C   LIG    1        0.175  -4.132   4.407  0.00  0.00    +0.047 A 
ATOM     42  C   LIG    1        1.558  -4.100   4.520  0.00  0.00    +0.077 A 
BRANCH  36  44
ATOM     43  C   LIG    1        4.147  -5.846   6.448  0.00  0.00    +0.277 C 
ATOM     44  O   LIG    1        3.556  -4.936   5.518  0.00  0.00    -0.493 OA
ENDBRANCH  36  44
ENDBRANCH  32  42
ENDBRANCH   1  34
BRANCH   2  45
ATOM     45  N   LIG    1        0.724   0.355   1.899  0.00  0.00    -0.356 N 
ATOM     46  H   LIG    1        0.321   0.943   1.241  0.00  0.00    +0.142 HD
ATOM     47  H   LIG    1        0.227   0.104   2.693  0.00  0.00    +0.142 HD
ENDBRANCH   2  45
TORSDOF 10
