REMARK  Name = ZINC06344454
REMARK                            x       y       z     vdW  Elec       q    Type
REMARK                         _______ _______ _______ _____ _____    ______ ____
ROOT
ATOM      1  C   LIG    1        4.848  -4.106   0.247  0.00  0.00    +0.110 C 
ENDROOT
BRANCH   1   5
ATOM      2  N   LIG    1        3.622  -0.651  -0.036  0.00  0.00    -0.269 N 
ATOM      3  H   LIG    1        4.452  -0.156  -0.120  0.00  0.00    +0.156 HD
ATOM      4  C   LIG    1        3.645  -1.995   0.058  0.00  0.00    +0.304 C 
ATOM      5  N   LIG    1        4.823  -2.644   0.144  0.00  0.00    -0.299 N 
ATOM      6  H   LIG    1        5.654  -2.144   0.139  0.00  0.00    +0.150 HD
ATOM      7  O   LIG    1        2.603  -2.622   0.065  0.00  0.00    -0.253 OA
BRANCH   2  11
ATOM      8  C   LIG    1       -0.015   1.381   0.031  0.00  0.00    +0.000 A 
ATOM      9  C   LIG    1        0.140   0.219   0.765  0.00  0.00    +0.002 A 
ATOM     10  C   LIG    1        1.344  -0.457   0.744  0.00  0.00    +0.023 A 
ATOM     11  C   LIG    1        2.400   0.031  -0.014  0.00  0.00    +0.035 A 
ATOM     12  C   LIG    1        2.241   1.198  -0.750  0.00  0.00    +0.023 A 
ATOM     13  C   LIG    1        1.034   1.870  -0.725  0.00  0.00    +0.002 A 
ENDBRANCH   2  11
ENDBRANCH   1   5
BRANCH   1  14
ATOM     14  C   LIG    1        6.298  -4.586   0.331  0.00  0.00    +0.054 C 
BRANCH  14  15
ATOM     15  C   LIG    1        6.324  -6.089   0.437  0.00  0.00    -0.046 A 
ATOM     16  C   LIG    1        6.288  -6.696   1.678  0.00  0.00    +0.005 A 
ATOM     17  C   LIG    1        6.312  -8.074   1.775  0.00  0.00    +0.029 A 
ATOM     18  C   LIG    1        6.371  -8.847   0.630  0.00  0.00    +0.105 A 
ATOM     19  C   LIG    1        6.405  -8.240  -0.612  0.00  0.00    +0.029 A 
ATOM     20  C   LIG    1        6.377  -6.862  -0.709  0.00  0.00    +0.005 A 
BRANCH  18  21
ATOM     21  S   LIG    1        6.402 -10.604   0.753  0.00  0.00    +0.056 S 
ATOM     22  O   LIG    1        6.911 -10.912   2.044  0.00  0.00    -0.153 OA
ATOM     23  O   LIG    1        7.008 -11.084  -0.439  0.00  0.00    -0.153 OA
BRANCH  21  24
ATOM     24  N   LIG    1        4.830 -11.125   0.728  0.00  0.00    -0.204 NA
ATOM     25  H   LIG    1        4.632 -12.073   0.787  0.00  0.00    +0.144 HD
ATOM     26  H   LIG    1        4.107 -10.482   0.655  0.00  0.00    +0.144 HD
ENDBRANCH  21  24
ENDBRANCH  18  21
ENDBRANCH  14  15
ENDBRANCH   1  14
TORSDOF 6
