REMARK  Name = ZINC07041604
REMARK                            x       y       z     vdW  Elec       q    Type
REMARK                         _______ _______ _______ _____ _____    ______ ____
ROOT
ATOM      1  C   LIG    1       -2.480  -4.209   4.546  0.00  0.00    -0.020 C 
ATOM      2  C   LIG    1       -3.034  -3.310   5.683  0.00  0.00    +0.003 C 
ATOM      3  C   LIG    1       -2.345  -1.928   5.527  0.00  0.00    +0.004 C 
ATOM      4  C   LIG    1       -1.678  -2.008   4.145  0.00  0.00    -0.001 C 
ATOM      5  C   LIG    1       -0.594  -1.017   3.862  0.00  0.00    +0.000 C 
ATOM      6  C   LIG    1       -0.009  -0.334   5.099  0.00  0.00    +0.031 C 
ATOM      7  C   LIG    1        0.999   0.674   4.605  0.00  0.00    -0.027 C 
ATOM      8  C   LIG    1        1.615   0.567   3.469  0.00  0.00    -0.065 C 
ATOM      9  C   LIG    1        1.442  -0.582   2.504  0.00  0.00    -0.008 C 
ATOM     10  C   LIG    1        2.822  -1.185   2.217  0.00  0.00    +0.016 C 
ATOM     11  C   LIG    1        0.862  -0.044   1.202  0.00  0.00    +0.014 C 
ATOM     12  C   LIG    1        0.845   1.484   1.221  0.00  0.00    +0.032 C 
ATOM     13  C   LIG    1        2.201   2.067   1.604  0.00  0.00    +0.119 C 
ATOM     14  C   LIG    1        2.567   1.671   3.039  0.00  0.00    +0.062 C 
ATOM     15  C   LIG    1        0.574  -1.675   3.113  0.00  0.00    +0.003 C 
ATOM     16  C   LIG    1        0.025  -2.643   2.074  0.00  0.00    +0.005 C 
ATOM     17  C   LIG    1       -0.648  -3.848   2.752  0.00  0.00    +0.007 C 
ATOM     18  C   LIG    1       -1.202  -3.473   4.099  0.00  0.00    -0.028 C 
ATOM     19  C   LIG    1       -0.155  -3.758   5.191  0.00  0.00    +0.011 C 
ENDROOT
BRANCH   1  21
ATOM     20  C   LIG    1       -4.028  -2.924   3.073  0.00  0.00    -0.014 C 
ATOM     21  C   LIG    1       -3.505  -4.318   3.424  0.00  0.00    -0.075 C 
BRANCH  21  22
ATOM     22  N   LIG    1       -4.638  -5.163   3.842  0.00  0.00    +0.380 N 
ATOM     23  H   LIG    1       -5.340  -5.181   3.093  0.00  0.00    -0.090 HD
ATOM     24  H   LIG    1       -5.062  -4.785   4.687  0.00  0.00    -0.090 HD
ATOM     25  H   LIG    1       -4.317  -6.114   4.019  0.00  0.00    -0.090 HD
ENDBRANCH  21  22
ENDBRANCH   1  21
BRANCH  13  26
ATOM     26  O   LIG    1        3.204   1.598   0.701  0.00  0.00    -0.391 OA
ATOM     27  H   LIG    1        4.091   1.933   0.890  0.00  0.00    +0.210 HD
ENDBRANCH  13  26
TORSDOF 3
