REMARK  Name = ZINC06021043
REMARK                            x       y       z     vdW  Elec       q    Type
REMARK                         _______ _______ _______ _____ _____    ______ ____
ROOT
ATOM      1  C   LIG    1       -1.433  -0.534   0.013  0.00  0.00    +0.019 C 
ENDROOT
BRANCH   1   2
ATOM      2  C   LIG    1       -1.414  -2.036   0.129  0.00  0.00    -0.049 A 
ATOM      3  C   LIG    1       -1.385  -2.817  -1.012  0.00  0.00    +0.003 A 
ATOM      4  C   LIG    1       -1.363  -4.195  -0.906  0.00  0.00    +0.000 A 
ATOM      5  C   LIG    1       -1.378  -4.792   0.341  0.00  0.00    +0.000 A 
ATOM      6  C   LIG    1       -1.411  -4.012   1.481  0.00  0.00    +0.000 A 
ATOM      7  C   LIG    1       -1.429  -2.634   1.375  0.00  0.00    +0.003 A 
ENDBRANCH   1   2
BRANCH   1   9
ATOM      8  C   LIG    1       -0.019   1.526   0.010  0.00  0.00    -0.013 C 
ATOM      9  C   LIG    1        0.002  -0.004   0.002  0.00  0.00    -0.071 C 
BRANCH   9  10
ATOM     10  N   LIG    1        0.685  -0.481  -1.216  0.00  0.00    +0.379 N 
ATOM     11  H   LIG    1        0.349  -1.423  -1.445  0.00  0.00    -0.086 HD
ATOM     12  H   LIG    1        0.474   0.156  -1.993  0.00  0.00    -0.086 HD
ATOM     13  C   LIG    1        2.144  -0.522  -1.002  0.00  0.00    -0.100 C 
ENDBRANCH   9  10
ENDBRANCH   1   9
TORSDOF 3
