REMARK  Name = ZINC07920867
REMARK                            x       y       z     vdW  Elec       q    Type
REMARK                         _______ _______ _______ _____ _____    ______ ____
ROOT
ATOM      1  C   LIG    1       -0.215   6.762  -0.891  0.00  0.00    +0.068 C 
ATOM      2  C   LIG    1        0.534   5.553  -0.393  0.00  0.00    +0.064 A 
ATOM      3  C   LIG    1        1.688   5.572   0.399  0.00  0.00    +0.005 A 
ATOM      4  C   LIG    1        2.050   4.290   0.636  0.00  0.00    +0.046 A 
ATOM      5  C   LIG    1        3.235   3.839   1.452  0.00  0.00    +0.066 C 
ATOM      6  N   LIG    1        1.161   3.488   0.009  0.00  0.00    -0.236 N 
ATOM      7  N   LIG    1        0.218   4.305  -0.627  0.00  0.00    -0.171 NA
ENDROOT
BRANCH   6   8
ATOM      8  C   LIG    1        1.177   2.086   0.002  0.00  0.00    +0.066 A 
ATOM      9  C   LIG    1       -0.017   1.377   0.010  0.00  0.00    +0.028 A 
ATOM     10  C   LIG    1        0.002  -0.004   0.002  0.00  0.00    +0.002 A 
ATOM     11  C   LIG    1        1.208  -0.680  -0.013  0.00  0.00    +0.000 A 
ATOM     12  C   LIG    1        2.398   0.023  -0.021  0.00  0.00    +0.002 A 
ATOM     13  C   LIG    1        2.386   1.404  -0.013  0.00  0.00    +0.028 A 
ENDBRANCH   6   8
BRANCH   3  14
ATOM     14  C   LIG    1        2.397   6.803   0.902  0.00  0.00    +0.134 C 
BRANCH  14  15
ATOM     15  C   LIG    1        1.829   7.197   2.241  0.00  0.00    +0.218 C 
ATOM     16  N   LIG    1        2.314   8.277   2.887  0.00  0.00    -0.312 N 
ATOM     17  H   LIG    1        3.028   8.799   2.490  0.00  0.00    +0.149 HD
ATOM     18  O   LIG    1        0.936   6.544   2.738  0.00  0.00    -0.275 OA
BRANCH  16  19
ATOM     19  C   LIG    1        1.762   8.660   4.189  0.00  0.00    +0.073 C 
ATOM     20  C   LIG    1        0.469   9.471   3.964  0.00  0.00    +0.022 C 
ATOM     21  C   LIG    1       -0.350   9.424   5.225  0.00  0.00    +0.002 C 
ATOM     22  C   LIG    1       -0.090  10.635   6.141  0.00  0.00    +0.000 C 
ATOM     23  C   LIG    1        1.402  11.010   6.228  0.00  0.00    +0.000 C 
ATOM     24  C   LIG    1        2.293   9.802   6.339  0.00  0.00    +0.002 C 
ATOM     25  C   LIG    1        2.768   9.413   4.924  0.00  0.00    +0.022 C 
ENDBRANCH  16  19
ENDBRANCH  14  15
ENDBRANCH   3  14
TORSDOF 4
