REMARK  Name = ZINC06093614
REMARK                            x       y       z     vdW  Elec       q    Type
REMARK                         _______ _______ _______ _____ _____    ______ ____
ROOT
ATOM      1  C   LIG    1       -1.054   5.133   0.037  0.00  0.00    +0.019 C 
ENDROOT
BRANCH   1   4
ATOM      2  C   LIG    1        1.029   1.944   0.003  0.00  0.00    +0.008 A 
ATOM      3  C   LIG    1        0.770   3.301   0.012  0.00  0.00    +0.011 A 
ATOM      4  C   LIG    1       -0.518   3.725   0.025  0.00  0.00    -0.008 A 
ATOM      5  S   LIG    1       -1.415   2.181   0.019  0.00  0.00    -0.101 S 
ATOM      6  C   LIG    1       -0.013   1.076   0.008  0.00  0.00    +0.045 A 
ENDBRANCH   1   4
BRANCH   1   7
ATOM      7  C   LIG    1       -1.897   5.348   1.295  0.00  0.00    -0.077 C 
BRANCH   7   8
ATOM      8  N   LIG    1       -1.032   5.224   2.481  0.00  0.00    +0.379 N 
ATOM      9  H   LIG    1       -0.635   4.277   2.513  0.00  0.00    -0.090 HD
ATOM     10  H   LIG    1       -1.574   5.386   3.328  0.00  0.00    -0.090 HD
ATOM     11  H   LIG    1       -0.272   5.901   2.431  0.00  0.00    -0.090 HD
ENDBRANCH   7   8
ENDBRANCH   1   7
BRANCH   1  12
ATOM     12  C   LIG    1       -1.920   5.360  -1.203  0.00  0.00    +0.127 C 
BRANCH  12  13
ATOM     13  C   LIG    1       -2.355   6.802  -1.255  0.00  0.00    +0.305 C 
ATOM     14  O   LIG    1       -2.008   7.569  -0.390  0.00  0.00    -0.251 OA
BRANCH  13  15
ATOM     15  O   LIG    1       -3.129   7.233  -2.264  0.00  0.00    -0.481 OA
ATOM     16  H   LIG    1       -3.399   6.638  -2.935  0.00  0.00    +0.295 HD
ENDBRANCH  13  15
ENDBRANCH  12  13
ENDBRANCH   1  12
TORSDOF 6
