REMARK  Name = ZINC06906035
REMARK                            x       y       z     vdW  Elec       q    Type
REMARK                         _______ _______ _______ _____ _____    ______ ____
ROOT
ATOM      1  C   LIG    1        3.050  -1.716   4.162  0.00  0.00    +0.241 A 
ATOM      2  N   LIG    1        4.306  -1.310   4.325  0.00  0.00    -0.180 NA
ATOM      3  C   LIG    1        4.843  -0.450   3.466  0.00  0.00    +0.224 A 
ATOM      4  N   LIG    1        4.127   0.001   2.440  0.00  0.00    -0.181 NA
ATOM      5  C   LIG    1        2.870  -0.402   2.280  0.00  0.00    +0.224 A 
ATOM      6  N   LIG    1        2.332  -1.262   3.139  0.00  0.00    -0.180 NA
ENDROOT
BRANCH   3   7
ATOM      7  N   LIG    1        6.146  -0.028   3.635  0.00  0.00    -0.295 N 
ATOM      8  C   LIG    1        6.950  -0.304   2.435  0.00  0.00    +0.136 C 
ATOM      9  C   LIG    1        8.369   0.232   2.643  0.00  0.00    +0.179 C 
ATOM     10  O   LIG    1        8.929  -0.360   3.818  0.00  0.00    -0.377 OA
ATOM     11  C   LIG    1        8.172  -0.111   5.006  0.00  0.00    +0.179 C 
ATOM     12  C   LIG    1        6.751  -0.650   4.822  0.00  0.00    +0.136 C 
ENDBRANCH   3   7
BRANCH   5  13
ATOM     13  N   LIG    1        2.125   0.070   1.217  0.00  0.00    -0.295 N 
ATOM     14  C   LIG    1        0.772  -0.505   1.227  0.00  0.00    +0.136 C 
ATOM     15  C   LIG    1        0.002  -0.004   0.002  0.00  0.00    +0.179 C 
ATOM     16  O   LIG    1       -0.017   1.426   0.010  0.00  0.00    -0.377 OA
ATOM     17  C   LIG    1        1.284   2.019   0.001  0.00  0.00    +0.179 C 
ATOM     18  C   LIG    1        2.067   1.539   1.225  0.00  0.00    +0.136 C 
ENDBRANCH   5  13
BRANCH   1  19
ATOM     19  N   LIG    1        2.492  -2.609   5.055  0.00  0.00    -0.205 N 
ATOM     20  H   LIG    1        1.576  -2.905   4.936  0.00  0.00    +0.177 HD
BRANCH  19  22
ATOM     21  C   LIG    1        2.723  -3.927   6.972  0.00  0.00    +0.138 C 
ATOM     22  N   LIG    1        3.248  -3.087   6.133  0.00  0.00    -0.188 NA
BRANCH  21  25
ATOM     23  C   LIG    1        3.705  -5.804  10.074  0.00  0.00    +0.166 A 
ATOM     24  C   LIG    1        2.955  -5.334   9.010  0.00  0.00    +0.059 A 
ATOM     25  C   LIG    1        3.519  -4.430   8.106  0.00  0.00    +0.002 A 
ATOM     26  C   LIG    1        4.840  -4.009   8.276  0.00  0.00    +0.059 A 
ATOM     27  C   LIG    1        5.583  -4.479   9.344  0.00  0.00    +0.166 A 
ATOM     28  C   LIG    1        5.019  -5.379  10.243  0.00  0.00    +0.201 A 
BRANCH  23  30
ATOM     29  C   LIG    1        1.804  -7.079  10.720  0.00  0.00    +0.277 C 
ATOM     30  O   LIG    1        3.157  -6.684  10.954  0.00  0.00    -0.491 OA
ENDBRANCH  23  30
BRANCH  27  31
ATOM     31  O   LIG    1        6.867  -4.065   9.513  0.00  0.00    -0.491 OA
ATOM     32  C   LIG    1        7.383  -3.141   8.553  0.00  0.00    +0.277 C 
ENDBRANCH  27  31
BRANCH  28  33
ATOM     33  O   LIG    1        5.753  -5.843  11.290  0.00  0.00    -0.501 OA
ATOM     34  H   LIG    1        6.247  -6.651  11.096  0.00  0.00    +0.292 HD
ENDBRANCH  28  33
ENDBRANCH  21  25
ENDBRANCH  19  22
ENDBRANCH   1  19
TORSDOF 8
