REMARK  Name = ZINC06021022
REMARK                            x       y       z     vdW  Elec       q    Type
REMARK                         _______ _______ _______ _____ _____    ______ ____
ROOT
ATOM      1  C   LIG    1       -0.204   1.223   4.776  0.00  0.00    -0.045 A 
ATOM      2  C   LIG    1        0.936   0.441   4.814  0.00  0.00    +0.004 A 
ATOM      3  C   LIG    1        1.534   0.029   3.638  0.00  0.00    +0.004 A 
ATOM      4  C   LIG    1        0.991   0.392   2.421  0.00  0.00    +0.045 A 
ATOM      5  C   LIG    1       -0.149   1.182   2.380  0.00  0.00    +0.120 A 
ATOM      6  C   LIG    1       -0.747   1.595   3.562  0.00  0.00    +0.049 A 
ENDROOT
BRANCH   5   7
ATOM      7  O   LIG    1       -0.682   1.547   1.184  0.00  0.00    -0.495 OA
ATOM      8  C   LIG    1       -0.013   1.086   0.008  0.00  0.00    +0.277 C 
ENDBRANCH   5   7
BRANCH   1   9
ATOM      9  C   LIG    1       -0.853   1.670   6.060  0.00  0.00    +0.019 C 
BRANCH   9  11
ATOM     10  C   LIG    1       -2.636   1.145   7.729  0.00  0.00    -0.014 C 
ATOM     11  C   LIG    1       -1.889   0.633   6.496  0.00  0.00    -0.074 C 
BRANCH  11  12
ATOM     12  N   LIG    1       -1.232  -0.643   6.830  0.00  0.00    +0.380 N 
ATOM     13  H   LIG    1       -1.940  -1.314   7.151  0.00  0.00    -0.090 HD
ATOM     14  H   LIG    1       -0.548  -0.500   7.572  0.00  0.00    -0.090 HD
ATOM     15  H   LIG    1       -0.765  -1.021   6.007  0.00  0.00    -0.090 HD
ENDBRANCH  11  12
ENDBRANCH   9  11
ENDBRANCH   1   9
TORSDOF 4
