REMARK  Name = ZINC08457049
REMARK                            x       y       z     vdW  Elec       q    Type
REMARK                         _______ _______ _______ _____ _____    ______ ____
ROOT
ATOM      1  C   LIG    1       -0.017   1.387   0.010  0.00  0.00    +0.001 A 
ATOM      2  C   LIG    1        1.135   2.120   0.003  0.00  0.00    +0.008 A 
ATOM      3  C   LIG    1        2.383   1.472  -0.009  0.00  0.00    -0.016 A 
ATOM      4  C   LIG    1        3.600   2.176  -0.009  0.00  0.00    +0.008 A 
ATOM      5  C   LIG    1        4.784   1.496  -0.015  0.00  0.00    +0.001 A 
ATOM      6  C   LIG    1        4.828   0.105  -0.024  0.00  0.00    +0.015 A 
ATOM      7  C   LIG    1        3.651  -0.624  -0.028  0.00  0.00    +0.068 A 
ATOM      8  C   LIG    1        3.620  -2.098  -0.043  0.00  0.00    +0.347 C 
ATOM      9  O   LIG    1        4.573  -2.746  -0.427  0.00  0.00    -0.244 OA
ATOM     10  O   LIG    1        2.479  -2.704   0.390  0.00  0.00    -0.386 OA
ATOM     11  C   LIG    1        1.309  -2.150  -0.032  0.00  0.00    +0.347 C 
ATOM     12  O   LIG    1        0.383  -2.841  -0.409  0.00  0.00    -0.244 OA
ATOM     13  C   LIG    1        1.211  -0.679  -0.015  0.00  0.00    +0.068 A 
ATOM     14  C   LIG    1        2.415   0.064  -0.019  0.00  0.00    +0.010 A 
ATOM     15  C   LIG    1        0.002  -0.004   0.002  0.00  0.00    +0.015 A 
ENDROOT
TORSDOF 0
