REMARK  Name = ZINC06863734
REMARK                            x       y       z     vdW  Elec       q    Type
REMARK                         _______ _______ _______ _____ _____    ______ ____
ROOT
ATOM      1  S   LIG    1        3.964  -0.803  -0.042  0.00  0.00    +0.156 S 
ATOM      2  O   LIG    1        4.973   0.197  -0.019  0.00  0.00    -0.132 OA
ATOM      3  O   LIG    1        3.880  -1.778  -1.072  0.00  0.00    -0.132 OA
ENDROOT
BRANCH   1   7
ATOM      4  C   LIG    1       -0.017   1.375   0.010  0.00  0.00    +0.001 A 
ATOM      5  C   LIG    1        1.171   2.086   0.002  0.00  0.00    +0.002 A 
ATOM      6  C   LIG    1        2.384   1.421  -0.013  0.00  0.00    +0.031 A 
ATOM      7  C   LIG    1        2.418   0.042  -0.021  0.00  0.00    +0.141 A 
ATOM      8  C   LIG    1        1.224  -0.683  -0.014  0.00  0.00    +0.087 A 
ATOM      9  C   LIG    1        0.002  -0.004   0.002  0.00  0.00    +0.017 A 
BRANCH   8  10
ATOM     10  C   LIG    1        1.252  -2.158  -0.022  0.00  0.00    +0.339 C 
ATOM     11  O   LIG    1        0.205  -2.789  -0.016  0.00  0.00    -0.245 OA
BRANCH  10  12
ATOM     12  O   LIG    1        2.322  -2.749  -0.036  0.00  0.00    -0.477 OA
ATOM     13  H   LIG    1        3.125  -2.265  -0.041  0.00  0.00    +0.295 HD
ENDBRANCH  10  12
ENDBRANCH   8  10
ENDBRANCH   1   7
BRANCH   1  14
ATOM     14  N   LIG    1        4.087  -1.633   1.386  0.00  0.00    +0.061 NA
ATOM     15  C   LIG    1        5.146  -2.351   1.633  0.00  0.00    +0.403 C 
BRANCH  15  16
ATOM     16  N   LIG    1        5.249  -3.039   2.819  0.00  0.00    -0.288 N 
ATOM     17  H   LIG    1        6.037  -3.574   3.003  0.00  0.00    +0.255 HD
ATOM     18  H   LIG    1        4.533  -2.991   3.471  0.00  0.00    +0.255 HD
ENDBRANCH  15  16
BRANCH  15  19
ATOM     19  N   LIG    1        6.161  -2.420   0.708  0.00  0.00    -0.288 N 
ATOM     20  H   LIG    1        6.949  -2.954   0.892  0.00  0.00    +0.255 HD
ATOM     21  H   LIG    1        6.089  -1.934  -0.128  0.00  0.00    +0.255 HD
ENDBRANCH  15  19
ENDBRANCH   1  14
TORSDOF 6
