REMARK  Name = ZINC05948475
REMARK                            x       y       z     vdW  Elec       q    Type
REMARK                         _______ _______ _______ _____ _____    ______ ____
ROOT
ATOM      1  C   LIG    1        0.148   0.764   0.721  0.00  0.00    +0.002 A 
ATOM      2  C   LIG    1       -0.891   1.068  -0.139  0.00  0.00    +0.001 A 
ATOM      3  C   LIG    1       -0.735   2.059  -1.092  0.00  0.00    +0.017 A 
ATOM      4  C   LIG    1        0.468   2.735  -1.188  0.00  0.00    +0.035 A 
ATOM      5  C   LIG    1        1.523   2.427  -0.326  0.00  0.00    +0.055 A 
ATOM      6  N   LIG    1        2.741   3.110  -0.425  0.00  0.00    -0.234 N 
ATOM      7  C   LIG    1        3.416   3.413   0.701  0.00  0.00    +0.255 C 
ATOM      8  O   LIG    1        2.948   3.127   1.786  0.00  0.00    -0.269 OA
ATOM      9  C   LIG    1        3.277   3.487  -1.662  0.00  0.00    +0.055 A 
ATOM     10  C   LIG    1        4.645   3.426  -1.880  0.00  0.00    +0.025 A 
ATOM     11  C   LIG    1        5.167   3.799  -3.105  0.00  0.00    +0.002 A 
ATOM     12  C   LIG    1        4.334   4.235  -4.119  0.00  0.00    +0.001 A 
ATOM     13  C   LIG    1        2.967   4.301  -3.913  0.00  0.00    +0.017 A 
ATOM     14  C   LIG    1        2.439   3.929  -2.690  0.00  0.00    +0.035 A 
ATOM     15  S   LIG    1        0.700   4.001  -2.397  0.00  0.00    -0.086 S 
ATOM     16  C   LIG    1        1.353   1.436   0.629  0.00  0.00    +0.025 A 
ENDROOT
BRANCH   7  17
ATOM     17  C   LIG    1        4.725   4.093   0.617  0.00  0.00    +0.038 A 
ATOM     18  C   LIG    1        4.854   5.279  -0.110  0.00  0.00    +0.014 A 
ATOM     19  C   LIG    1        6.077   5.911  -0.180  0.00  0.00    +0.016 A 
ATOM     20  C   LIG    1        7.179   5.368   0.459  0.00  0.00    +0.018 A 
ATOM     21 BR   LIG    1        8.854   6.238   0.351  0.00  0.00    -0.050 Br
ATOM     22  C   LIG    1        7.058   4.190   1.177  0.00  0.00    +0.016 A 
ATOM     23  C   LIG    1        5.839   3.550   1.260  0.00  0.00    +0.014 A 
ENDBRANCH   7  17
TORSDOF 1
