REMARK  Name = ZINC06273129
REMARK                            x       y       z     vdW  Elec       q    Type
REMARK                         _______ _______ _______ _____ _____    ______ ____
ROOT
ATOM      1  C   LIG    1        1.455   6.255   0.637  0.00  0.00    -0.038 A 
ATOM      2  C   LIG    1        0.500   5.678  -0.182  0.00  0.00    +0.004 A 
ATOM      3  C   LIG    1        0.494   4.311  -0.377  0.00  0.00    +0.008 A 
ATOM      4  C   LIG    1        1.440   3.512   0.243  0.00  0.00    -0.002 A 
ATOM      5  C   LIG    1        2.394   4.085   1.067  0.00  0.00    +0.125 A 
ATOM      6  O   LIG    1        3.336   3.342   1.704  0.00  0.00    -0.486 OA
ATOM      7  C   LIG    1        3.554   2.000   1.262  0.00  0.00    +0.109 C 
ATOM      8  C   LIG    1        4.272   2.012  -0.089  0.00  0.00    +0.055 C 
ATOM      9  C   LIG    1        4.401   1.249   2.291  0.00  0.00    +0.055 C 
ATOM     10  C   LIG    1        2.193   1.316   1.116  0.00  0.00    +0.044 C 
ATOM     11  C   LIG    1        2.369  -0.148   0.708  0.00  0.00    +0.035 C 
ATOM     12  C   LIG    1        1.038  -0.719   0.306  0.00  0.00    -0.027 C 
ATOM     13  C   LIG    1        0.002  -0.004   0.002  0.00  0.00    -0.076 C 
ATOM     14  C   LIG    1       -1.264  -0.725  -0.385  0.00  0.00    +0.039 C 
ATOM     15  C   LIG    1       -0.018   1.499   0.010  0.00  0.00    +0.039 C 
ATOM     16  C   LIG    1        1.416   2.028  -0.001  0.00  0.00    +0.034 C 
ATOM     17  C   LIG    1        2.397   5.463   1.260  0.00  0.00    +0.050 A 
ENDROOT
BRANCH   1  18
ATOM     18  C   LIG    1        1.464   7.747   0.849  0.00  0.00    -0.010 C 
ATOM     19  C   LIG    1        2.800   8.321   0.373  0.00  0.00    +0.016 C 
ATOM     20  C   LIG    1        1.279   8.052   2.336  0.00  0.00    +0.016 C 
BRANCH  18  21
ATOM     21  C   LIG    1        0.324   8.383   0.051  0.00  0.00    +0.011 C 
BRANCH  21  23
ATOM     22  C   LIG    1       -0.807  10.533  -0.531  0.00  0.00    +0.004 C 
ATOM     23  C   LIG    1        0.333   9.898   0.266  0.00  0.00    -0.003 C 
ENDBRANCH  21  23
ENDBRANCH  18  21
ENDBRANCH   1  18
TORSDOF 3
