REMARK  Name = ZINC05943142
REMARK                            x       y       z     vdW  Elec       q    Type
REMARK                         _______ _______ _______ _____ _____    ______ ____
ROOT
ATOM      1  C   LIG    1        0.400   1.198  -0.190  0.00  0.00    +0.256 C 
ATOM      2  N   LIG    1        1.603   1.806  -0.185  0.00  0.00    -0.234 N 
ATOM      3  C   LIG    1        1.665   3.191  -0.382  0.00  0.00    +0.055 A 
ATOM      4  C   LIG    1        0.804   3.814  -1.268  0.00  0.00    +0.025 A 
ATOM      5  C   LIG    1        0.873   5.183  -1.454  0.00  0.00    +0.002 A 
ATOM      6  C   LIG    1        1.795   5.939  -0.756  0.00  0.00    +0.001 A 
ATOM      7  C   LIG    1        2.660   5.329   0.137  0.00  0.00    +0.017 A 
ATOM      8  C   LIG    1        2.595   3.961   0.327  0.00  0.00    +0.035 A 
ATOM      9  S   LIG    1        3.683   3.153   1.459  0.00  0.00    -0.086 S 
ATOM     10  C   LIG    1        3.820   1.536   0.763  0.00  0.00    +0.035 A 
ATOM     11  C   LIG    1        4.959   0.777   0.957  0.00  0.00    +0.017 A 
ATOM     12  C   LIG    1        5.043  -0.488   0.401  0.00  0.00    +0.001 A 
ATOM     13  C   LIG    1        3.992  -0.988  -0.344  0.00  0.00    +0.002 A 
ATOM     14  C   LIG    1        2.850  -0.233  -0.541  0.00  0.00    +0.025 A 
ATOM     15  C   LIG    1        2.754   1.036   0.011  0.00  0.00    +0.055 A 
ATOM     16  O   LIG    1       -0.615   1.857  -0.308  0.00  0.00    -0.269 OA
ENDROOT
BRANCH   1  23
ATOM     17  C   LIG    1       -0.912  -0.368  -2.238  0.00  0.00    +0.044 C 
ATOM     18  C   LIG    1       -0.316  -1.036  -1.026  0.00  0.00    -0.038 A 
ATOM     19  C   LIG    1       -0.389  -2.407  -0.886  0.00  0.00    +0.004 A 
ATOM     20  C   LIG    1        0.153  -3.022   0.229  0.00  0.00    +0.000 A 
ATOM     21  C   LIG    1        0.775  -2.268   1.208  0.00  0.00    +0.001 A 
ATOM     22  C   LIG    1        0.859  -0.897   1.079  0.00  0.00    +0.013 A 
ATOM     23  C   LIG    1        0.315  -0.271  -0.044  0.00  0.00    +0.040 A 
ENDBRANCH   1  23
TORSDOF 1
