REMARK  Name = ZINC08306504
REMARK                            x       y       z     vdW  Elec       q    Type
REMARK                         _______ _______ _______ _____ _____    ______ ____
ROOT
ATOM      1  C   LIG    1        3.945   3.259   0.780  0.00  0.00    +0.060 A 
ATOM      2  C   LIG    1        5.316   3.667   0.422  0.00  0.00    +0.011 A 
ATOM      3  C   LIG    1        6.163   4.682   0.860  0.00  0.00    +0.011 A 
ATOM      4  C   LIG    1        7.419   4.809   0.308  0.00  0.00    +0.001 A 
ATOM      5  C   LIG    1        7.841   3.931  -0.679  0.00  0.00    +0.002 A 
ATOM      6  C   LIG    1        7.013   2.922  -1.122  0.00  0.00    +0.026 A 
ATOM      7  C   LIG    1        5.740   2.777  -0.577  0.00  0.00    +0.048 A 
ATOM      8  N   LIG    1        4.716   1.881  -0.818  0.00  0.00    -0.354 N 
ATOM      9  H   LIG    1        4.752   1.161  -1.466  0.00  0.00    +0.166 HD
ATOM     10  C   LIG    1        3.648   2.152  -0.019  0.00  0.00    +0.059 A 
ENDROOT
BRANCH  10  11
ATOM     11  C   LIG    1        2.378   1.402  -0.005  0.00  0.00    -0.001 A 
ATOM     12  C   LIG    1        1.159   2.086   0.013  0.00  0.00    +0.010 A 
ATOM     13  C   LIG    1       -0.024   1.377   0.027  0.00  0.00    +0.001 A 
ATOM     14  C   LIG    1       -0.006  -0.007   0.023  0.00  0.00    +0.000 A 
ATOM     15  C   LIG    1        1.197  -0.690   0.006  0.00  0.00    +0.001 A 
ATOM     16  C   LIG    1        2.389   0.004  -0.008  0.00  0.00    +0.010 A 
ENDBRANCH  10  11
BRANCH   1  17
ATOM     17  C   LIG    1        3.102   3.864   1.742  0.00  0.00    +0.250 C 
ATOM     18  O   LIG    1        2.423   4.826   1.436  0.00  0.00    -0.282 OA
BRANCH  17  21
ATOM     19  N   LIG    1        2.166   3.831   4.016  0.00  0.00    -0.309 N 
ATOM     20  H   LIG    1        1.570   4.549   3.751  0.00  0.00    +0.149 HD
ATOM     21  C   LIG    1        3.045   3.323   3.130  0.00  0.00    +0.285 C 
ATOM     22  O   LIG    1        3.791   2.424   3.461  0.00  0.00    -0.267 OA
BRANCH  19  23
ATOM     23  C   LIG    1        2.111   3.299   5.380  0.00  0.00    +0.104 C 
BRANCH  23  25
ATOM     24  C   LIG    1        0.979   3.488   7.599  0.00  0.00    +0.005 C 
ATOM     25  C   LIG    1        1.037   4.044   6.175  0.00  0.00    +0.015 C 
ENDBRANCH  23  25
ENDBRANCH  19  23
ENDBRANCH  17  21
ENDBRANCH   1  17
TORSDOF 5
