REMARK  Name = ZINC06576219
REMARK                            x       y       z     vdW  Elec       q    Type
REMARK                         _______ _______ _______ _____ _____    ______ ____
ROOT
ATOM      1  C   LIG    1        3.628   2.304  -0.021  0.00  0.00    +0.104 C 
ATOM      2  C   LIG    1        3.629   3.177  -1.247  0.00  0.00    +0.007 A 
ATOM      3  C   LIG    1        3.963   2.631  -2.473  0.00  0.00    +0.008 A 
ATOM      4  C   LIG    1        3.969   3.421  -3.607  0.00  0.00    +0.001 A 
ATOM      5  C   LIG    1        3.640   4.761  -3.520  0.00  0.00    +0.004 A 
ATOM      6  C   LIG    1        3.306   5.311  -2.299  0.00  0.00    +0.046 A 
ATOM      7  C   LIG    1        3.301   4.520  -1.156  0.00  0.00    +0.133 A 
ATOM      8  O   LIG    1        2.974   5.074   0.037  0.00  0.00    -0.454 OA
ATOM      9  C   LIG    1        3.340   4.470   1.181  0.00  0.00    +0.150 A 
ATOM     10  C   LIG    1        3.404   5.234   2.437  0.00  0.00    +0.060 A 
ATOM     11  C   LIG    1        3.087   6.594   2.467  0.00  0.00    +0.015 A 
ATOM     12  C   LIG    1        3.158   7.283   3.658  0.00  0.00    +0.001 A 
ATOM     13  C   LIG    1        3.540   6.631   4.821  0.00  0.00    +0.004 A 
ATOM     14  C   LIG    1        3.854   5.288   4.804  0.00  0.00    +0.047 A 
ATOM     15  C   LIG    1        3.789   4.573   3.614  0.00  0.00    +0.143 A 
ATOM     16  O   LIG    1        4.095   3.260   3.591  0.00  0.00    -0.422 OA
ATOM     17  C   LIG    1        4.038   2.569   2.448  0.00  0.00    +0.345 A 
ATOM     18  O   LIG    1        4.323   1.385   2.470  0.00  0.00    -0.245 OA
ATOM     19  C   LIG    1        3.665   3.147   1.224  0.00  0.00    +0.092 A 
ENDROOT
BRANCH   1  26
ATOM     20  C   LIG    1        0.067  -2.783  -0.012  0.00  0.00    +0.001 A 
ATOM     21  C   LIG    1       -1.145  -2.108   0.004  0.00  0.00    +0.004 A 
ATOM     22  C   LIG    1       -1.182  -0.730   0.010  0.00  0.00    +0.047 A 
ATOM     23  C   LIG    1        0.002  -0.004   0.002  0.00  0.00    +0.143 A 
ATOM     24  C   LIG    1        1.229  -0.686  -0.013  0.00  0.00    +0.059 A 
ATOM     25  C   LIG    1        2.476   0.094  -0.022  0.00  0.00    +0.138 A 
ATOM     26  C   LIG    1        2.381   1.458  -0.014  0.00  0.00    +0.091 A 
ATOM     27  C   LIG    1        1.117   2.067   0.003  0.00  0.00    +0.345 A 
ATOM     28  O   LIG    1        1.045   3.283   0.009  0.00  0.00    -0.245 OA
ATOM     29  O   LIG    1       -0.016   1.346   0.009  0.00  0.00    -0.422 OA
ATOM     30  C   LIG    1        1.252  -2.083  -0.020  0.00  0.00    +0.015 A 
BRANCH  25  31
ATOM     31  O   LIG    1        3.682  -0.520  -0.036  0.00  0.00    -0.506 OA
ATOM     32  H   LIG    1        4.604   0.079  -0.042  0.00  0.00    +0.292 HD
ENDBRANCH  25  31
ENDBRANCH   1  26
TORSDOF 2
