REMARK  Name = ZINC06036847
REMARK                            x       y       z     vdW  Elec       q    Type
REMARK                         _______ _______ _______ _____ _____    ______ ____
ROOT
ATOM      1  C   LIG    1       -2.514   0.980   0.019  0.00  0.00    +0.018 C 
ENDROOT
BRANCH   1   2
ATOM      2  C   LIG    1       -1.219   1.751   0.017  0.00  0.00    -0.049 A 
ATOM      3  C   LIG    1       -0.013   1.076   0.008  0.00  0.00    +0.003 A 
ATOM      4  C   LIG    1        1.175   1.783   0.000  0.00  0.00    +0.000 A 
ATOM      5  C   LIG    1        1.156   3.165   0.008  0.00  0.00    +0.000 A 
ATOM      6  C   LIG    1       -0.050   3.840   0.022  0.00  0.00    +0.000 A 
ATOM      7  C   LIG    1       -1.238   3.133   0.030  0.00  0.00    +0.003 A 
ENDBRANCH   1   2
BRANCH   1   9
ATOM      8  C   LIG    1       -4.319   0.038   1.467  0.00  0.00    -0.014 C 
ATOM      9  C   LIG    1       -2.945   0.711   1.462  0.00  0.00    -0.074 C 
BRANCH   9  10
ATOM     10  N   LIG    1       -1.945  -0.158   2.108  0.00  0.00    +0.380 N 
ATOM     11  H   LIG    1       -1.039   0.325   2.125  0.00  0.00    -0.090 HD
ATOM     12  H   LIG    1       -1.849  -1.028   1.587  0.00  0.00    -0.090 HD
ATOM     13  H   LIG    1       -2.228  -0.365   3.065  0.00  0.00    -0.090 HD
ENDBRANCH   9  10
ENDBRANCH   1   9
TORSDOF 3
