REMARK  Name = ZINC08445171
REMARK                            x       y       z     vdW  Elec       q    Type
REMARK                         _______ _______ _______ _____ _____    ______ ____
ROOT
ATOM      1  C   LIG    1        2.861  -1.990  -1.532  0.00  0.00    +0.136 A 
ATOM      2  N   LIG    1        3.310  -2.219  -0.319  0.00  0.00    -0.233 NA
ATOM      3  C   LIG    1        4.373  -1.562   0.198  0.00  0.00    +0.080 A 
ATOM      4  C   LIG    1        4.953  -1.713   1.478  0.00  0.00    +0.031 A 
ATOM      5  C   LIG    1        6.038  -0.965   1.851  0.00  0.00    +0.025 A 
ATOM      6  C   LIG    1        6.608  -0.032   0.987  0.00  0.00    +0.035 A 
ATOM      7  C   LIG    1        6.062   0.141  -0.278  0.00  0.00    +0.040 A 
ATOM      8  C   LIG    1        4.975  -0.608  -0.654  0.00  0.00    +0.042 A 
ATOM      9  S   LIG    1        3.981  -0.729  -2.122  0.00  0.00    -0.061 S 
ENDROOT
BRANCH   6  10
ATOM     10  N   LIG    1        7.717   0.722   1.390  0.00  0.00    -0.283 N 
ATOM     11  H   LIG    1        7.819   1.637   1.083  0.00  0.00    +0.155 HD
BRANCH  10  12
ATOM     12  C   LIG    1        8.666   0.164   2.223  0.00  0.00    +0.225 A 
ATOM     13  N   LIG    1        9.667   0.908   2.684  0.00  0.00    -0.181 NA
ATOM     14  C   LIG    1       10.578   0.371   3.490  0.00  0.00    +0.224 A 
ATOM     15  N   LIG    1       10.493  -0.912   3.828  0.00  0.00    -0.181 NA
ATOM     16  C   LIG    1        9.495  -1.657   3.363  0.00  0.00    +0.224 A 
ATOM     17  N   LIG    1        8.582  -1.120   2.561  0.00  0.00    -0.181 NA
BRANCH  14  18
ATOM     18  N   LIG    1       11.614   1.145   3.973  0.00  0.00    -0.299 N 
ATOM     19  C   LIG    1       12.916   0.698   3.417  0.00  0.00    +0.108 C 
ATOM     20  C   LIG    1       13.830   1.933   3.615  0.00  0.00    +0.020 C 
ATOM     21  C   LIG    1       12.877   3.117   3.332  0.00  0.00    +0.020 C 
ATOM     22  C   LIG    1       11.460   2.556   3.556  0.00  0.00    +0.108 C 
ENDBRANCH  14  18
BRANCH  16  23
ATOM     23  N   LIG    1        9.408  -2.989   3.713  0.00  0.00    -0.299 N 
ATOM     24  C   LIG    1        9.690  -3.179   5.159  0.00  0.00    +0.108 C 
ATOM     25  C   LIG    1        9.050  -4.556   5.468  0.00  0.00    +0.020 C 
ATOM     26  C   LIG    1        7.768  -4.542   4.604  0.00  0.00    +0.020 C 
ATOM     27  C   LIG    1        8.038  -3.505   3.499  0.00  0.00    +0.108 C 
ENDBRANCH  16  23
ENDBRANCH  10  12
ENDBRANCH   6  10
BRANCH   1  28
ATOM     28  S   LIG    1        1.503  -2.740  -2.367  0.00  0.00    -0.089 S 
BRANCH  28  29
ATOM     29  C   LIG    1        0.937  -3.884  -1.083  0.00  0.00    +0.172 C 
BRANCH  29  32
ATOM     30  N   LIG    1       -0.847  -5.574  -0.798  0.00  0.00    -0.285 N 
ATOM     31  H   LIG    1       -0.462  -5.792   0.065  0.00  0.00    +0.155 HD
ATOM     32  C   LIG    1       -0.253  -4.658  -1.589  0.00  0.00    +0.227 C 
ATOM     33  O   LIG    1       -0.677  -4.456  -2.707  0.00  0.00    -0.275 OA
BRANCH  30  37
ATOM     34  C   LIG    1       -4.334  -7.470  -2.062  0.00  0.00    +0.000 A 
ATOM     35  C   LIG    1       -3.352  -7.149  -2.981  0.00  0.00    +0.002 A 
ATOM     36  C   LIG    1       -2.194  -6.521  -2.565  0.00  0.00    +0.023 A 
ATOM     37  C   LIG    1       -2.018  -6.211  -1.223  0.00  0.00    +0.033 A 
ATOM     38  C   LIG    1       -3.004  -6.540  -0.302  0.00  0.00    +0.023 A 
ATOM     39  C   LIG    1       -4.161  -7.164  -0.725  0.00  0.00    +0.002 A 
ENDBRANCH  30  37
ENDBRANCH  29  32
ENDBRANCH  28  29
ENDBRANCH   1  28
TORSDOF 8
