REMARK  Name = ZINC08438283
REMARK                            x       y       z     vdW  Elec       q    Type
REMARK                         _______ _______ _______ _____ _____    ______ ____
ROOT
ATOM      1  C   LIG    1       -1.910  -2.551  -0.983  0.00  0.00    +0.136 A 
ATOM      2  N   LIG    1       -0.715  -3.054  -0.776  0.00  0.00    -0.233 NA
ATOM      3  C   LIG    1       -0.507  -4.377  -0.586  0.00  0.00    +0.080 A 
ATOM      4  C   LIG    1        0.719  -5.042  -0.354  0.00  0.00    +0.031 A 
ATOM      5  C   LIG    1        0.759  -6.400  -0.179  0.00  0.00    +0.025 A 
ATOM      6  C   LIG    1       -0.399  -7.172  -0.222  0.00  0.00    +0.035 A 
ATOM      7  C   LIG    1       -1.620  -6.549  -0.447  0.00  0.00    +0.040 A 
ATOM      8  C   LIG    1       -1.663  -5.189  -0.623  0.00  0.00    +0.042 A 
ATOM      9  S   LIG    1       -2.951  -4.002  -0.918  0.00  0.00    -0.061 S 
ENDROOT
BRANCH   6  10
ATOM     10  N   LIG    1       -0.334  -8.559  -0.039  0.00  0.00    -0.283 N 
ATOM     11  H   LIG    1        0.415  -9.061  -0.399  0.00  0.00    +0.155 HD
BRANCH  10  12
ATOM     12  C   LIG    1       -1.335  -9.213   0.653  0.00  0.00    +0.225 A 
ATOM     13  N   LIG    1       -2.298  -8.514   1.246  0.00  0.00    -0.181 NA
ATOM     14  C   LIG    1       -3.264  -9.143   1.908  0.00  0.00    +0.224 A 
ATOM     15  N   LIG    1       -3.261 -10.471   1.985  0.00  0.00    -0.181 NA
ATOM     16  C   LIG    1       -2.295 -11.169   1.396  0.00  0.00    +0.224 A 
ATOM     17  N   LIG    1       -1.332 -10.540   0.730  0.00  0.00    -0.181 NA
BRANCH  14  18
ATOM     18  N   LIG    1       -4.267  -8.419   2.519  0.00  0.00    -0.299 N 
ATOM     19  C   LIG    1       -5.589  -8.853   2.053  0.00  0.00    +0.108 C 
ATOM     20  C   LIG    1       -6.676  -8.133   2.854  0.00  0.00    +0.019 C 
ATOM     21  C   LIG    1       -6.521  -6.621   2.671  0.00  0.00    +0.003 C 
ATOM     22  C   LIG    1       -5.119  -6.202   3.119  0.00  0.00    +0.019 C 
ATOM     23  C   LIG    1       -4.077  -6.978   2.310  0.00  0.00    +0.108 C 
ENDBRANCH  14  18
BRANCH  16  24
ATOM     24  N   LIG    1       -2.293 -12.547   1.476  0.00  0.00    -0.299 N 
ATOM     25  C   LIG    1       -2.318 -12.992   2.875  0.00  0.00    +0.108 C 
ATOM     26  C   LIG    1       -2.462 -14.515   2.924  0.00  0.00    +0.019 C 
ATOM     27  C   LIG    1       -1.284 -15.158   2.186  0.00  0.00    +0.003 C 
ATOM     28  C   LIG    1       -1.251 -14.640   0.746  0.00  0.00    +0.019 C 
ATOM     29  C   LIG    1       -1.143 -13.113   0.760  0.00  0.00    +0.108 C 
ENDBRANCH  16  24
ENDBRANCH  10  12
ENDBRANCH   6  10
BRANCH   1  30
ATOM     30  S   LIG    1       -2.372  -0.871  -1.249  0.00  0.00    -0.089 S 
BRANCH  30  31
ATOM     31  C   LIG    1       -0.746  -0.080  -1.153  0.00  0.00    +0.172 C 
BRANCH  31  34
ATOM     32  N   LIG    1        0.188   2.204  -1.328  0.00  0.00    -0.314 N 
ATOM     33  H   LIG    1        1.066   1.822  -1.175  0.00  0.00    +0.149 HD
ATOM     34  C   LIG    1       -0.898   1.405  -1.358  0.00  0.00    +0.223 C 
ATOM     35  O   LIG    1       -1.996   1.881  -1.554  0.00  0.00    -0.275 OA
BRANCH  32  36
ATOM     36  C   LIG    1        0.040   3.648  -1.526  0.00  0.00    +0.109 C 
BRANCH  36  37
ATOM     37  C   LIG    1        1.414   4.316  -1.446  0.00  0.00    +0.054 C 
BRANCH  37  41
ATOM     38  C   LIG    1        0.985   8.531  -2.032  0.00  0.00    +0.161 A 
ATOM     39  C   LIG    1        1.197   7.695  -3.117  0.00  0.00    +0.049 A 
ATOM     40  C   LIG    1        1.341   6.334  -2.923  0.00  0.00    +0.007 A 
ATOM     41  C   LIG    1        1.263   5.802  -1.650  0.00  0.00    -0.042 A 
ATOM     42  C   LIG    1        1.052   6.629  -0.563  0.00  0.00    +0.053 A 
ATOM     43  C   LIG    1        0.913   7.995  -0.749  0.00  0.00    +0.162 A 
BRANCH  38  45
ATOM     44  C   LIG    1        0.934  10.349  -3.563  0.00  0.00    +0.277 C 
ATOM     45  O   LIG    1        0.849   9.871  -2.220  0.00  0.00    -0.491 OA
ENDBRANCH  38  45
BRANCH  43  46
ATOM     46  O   LIG    1        0.705   8.811   0.319  0.00  0.00    -0.491 OA
ATOM     47  C   LIG    1        0.641   8.192   1.605  0.00  0.00    +0.277 C 
ENDBRANCH  43  46
ENDBRANCH  37  41
ENDBRANCH  36  37
ENDBRANCH  32  36
ENDBRANCH  31  34
ENDBRANCH  30  31
ENDBRANCH   1  30
TORSDOF 12
