REMARK  Name = ZINC07992850
REMARK                            x       y       z     vdW  Elec       q    Type
REMARK                         _______ _______ _______ _____ _____    ______ ____
ROOT
ATOM      1  C   LIG    1       -0.417  -2.866  -4.889  0.00  0.00    +0.013 C 
ATOM      2  C   LIG    1       -0.335  -2.157  -6.033  0.00  0.00    -0.023 C 
ATOM      3  C   LIG    1       -0.335  -0.641  -6.021  0.00  0.00    +0.039 C 
ATOM      4  C   LIG    1       -1.204  -0.185  -7.204  0.00  0.00    +0.026 C 
ATOM      5  C   LIG    1       -0.592  -0.712  -8.500  0.00  0.00    +0.113 C 
ATOM      6  N   LIG    1       -0.372  -2.150  -8.443  0.00  0.00    -0.384 N 
ATOM      7  H   LIG    1       -0.320  -2.635  -9.282  0.00  0.00    +0.160 HD
ATOM      8  C   LIG    1       -0.236  -2.825  -7.341  0.00  0.00    +0.047 C 
ENDROOT
BRANCH   1  12
ATOM      9  C   LIG    1       -0.192  -0.884  -1.145  0.00  0.00    +0.029 A 
ATOM     10  C   LIG    1       -0.975  -2.027  -1.279  0.00  0.00    +0.023 A 
ATOM     11  C   LIG    1       -1.051  -2.673  -2.492  0.00  0.00    +0.010 A 
ATOM     12  C   LIG    1       -0.339  -2.179  -3.591  0.00  0.00    -0.025 A 
ATOM     13  C   LIG    1        0.447  -1.029  -3.452  0.00  0.00    +0.010 A 
ATOM     14  C   LIG    1        0.513  -0.386  -2.237  0.00  0.00    +0.023 A 
BRANCH   9  16
ATOM     15  C   LIG    1        0.701   0.973   0.227  0.00  0.00    +0.129 C 
ATOM     16  N   LIG    1       -0.118  -0.234   0.085  0.00  0.00    -0.336 N 
ATOM     17  C   LIG    1       -0.859  -0.756   1.235  0.00  0.00    +0.129 C 
ENDBRANCH   9  16
ENDBRANCH   1  12
BRANCH   8  18
ATOM     18  C   LIG    1        0.015  -4.285  -7.400  0.00  0.00    +0.016 A 
ATOM     19  C   LIG    1        0.830  -4.905  -6.448  0.00  0.00    +0.013 A 
ATOM     20  C   LIG    1        1.033  -6.271  -6.548  0.00  0.00    +0.020 A 
ATOM     21  C   LIG    1        0.429  -6.971  -7.576  0.00  0.00    +0.111 A 
ATOM     22  N   LIG    1       -0.335  -6.359  -8.460  0.00  0.00    -0.263 NA
ATOM     23  C   LIG    1       -0.563  -5.063  -8.403  0.00  0.00    +0.120 A 
ENDBRANCH   8  18
TORSDOF 3
