REMARK  Name = ZINC06128122
REMARK                            x       y       z     vdW  Elec       q    Type
REMARK                         _______ _______ _______ _____ _____    ______ ____
ROOT
ATOM      1  C   LIG    1        1.235  -4.197  -1.474  0.00  0.00    +0.218 C 
ATOM      2  N   LIG    1        1.231  -4.865  -2.644  0.00  0.00    -0.279 N 
ATOM      3  H   LIG    1        1.218  -4.375  -3.482  0.00  0.00    +0.155 HD
ATOM      4  O   LIG    1        1.252  -4.808  -0.427  0.00  0.00    -0.275 OA
ENDROOT
BRANCH   2   5
ATOM      5  C   LIG    1        1.248  -6.251  -2.651  0.00  0.00    +0.084 A 
ATOM      6  C   LIG    1        1.241  -7.108  -3.743  0.00  0.00    +0.068 A 
ATOM      7  C   LIG    1        1.265  -8.536  -3.476  0.00  0.00    -0.023 A 
ATOM      8  C   LIG    1        1.281  -8.877  -2.169  0.00  0.00    -0.004 A 
ATOM      9  C   LIG    1        1.301 -10.260  -1.597  0.00  0.00    +0.043 C 
ATOM     10  C   LIG    1        0.923 -11.249  -2.708  0.00  0.00    +0.005 C 
ATOM     11  C   LIG    1        1.744 -10.923  -3.959  0.00  0.00    +0.005 C 
ATOM     12  C   LIG    1        1.267  -9.602  -4.565  0.00  0.00    +0.037 C 
ATOM     13  S   LIG    1        1.273  -7.335  -1.300  0.00  0.00    -0.077 S 
BRANCH   6  14
ATOM     14  C   LIG    1        1.216  -6.591  -5.115  0.00  0.00    +0.244 C 
ATOM     15  N   LIG    1        0.037  -6.366  -5.728  0.00  0.00    -0.325 N 
ATOM     16  H   LIG    1        0.020  -6.024  -6.636  0.00  0.00    +0.145 HD
ATOM     17  H   LIG    1       -0.795  -6.546  -5.262  0.00  0.00    +0.145 HD
ATOM     18  O   LIG    1        2.259  -6.365  -5.700  0.00  0.00    -0.270 OA
ENDBRANCH   6  14
ENDBRANCH   2   5
BRANCH   1  19
ATOM     19  C   LIG    1        1.217  -2.690  -1.466  0.00  0.00    +0.101 C 
BRANCH  19  20
ATOM     20  C   LIG    1        1.226  -2.187  -0.021  0.00  0.00    +0.044 C 
BRANCH  20  24
ATOM     21  C   LIG    1        1.176   2.086   0.002  0.00  0.00    +0.120 A 
ATOM     22  C   LIG    1       -0.017   1.377   0.010  0.00  0.00    +0.046 A 
ATOM     23  C   LIG    1        0.002  -0.004   0.002  0.00  0.00    +0.007 A 
ATOM     24  C   LIG    1        1.208  -0.680  -0.013  0.00  0.00    -0.047 A 
ATOM     25  C   LIG    1        2.398   0.024  -0.021  0.00  0.00    +0.007 A 
ATOM     26  C   LIG    1        2.385   1.405  -0.013  0.00  0.00    +0.046 A 
BRANCH  21  28
ATOM     27  C   LIG    1        2.426   4.108   0.001  0.00  0.00    +0.277 C 
ATOM     28  O   LIG    1        1.160   3.445   0.009  0.00  0.00    -0.495 OA
ENDBRANCH  21  28
ENDBRANCH  20  24
ENDBRANCH  19  20
ENDBRANCH   1  19
TORSDOF 6
