REMARK  Name = ZINC06709925
REMARK                            x       y       z     vdW  Elec       q    Type
REMARK                         _______ _______ _______ _____ _____    ______ ____
ROOT
ATOM      1  C   LIG    1        2.353   3.933   0.162  0.00  0.00    +0.135 A 
ATOM      2  C   LIG    1        1.151   3.179   0.160  0.00  0.00    +0.040 A 
ATOM      3  C   LIG    1        1.148   1.792  -0.016  0.00  0.00    +0.013 A 
ATOM      4  C   LIG    1       -0.037   1.116  -0.009  0.00  0.00    +0.001 A 
ATOM      5  C   LIG    1       -1.243   1.788   0.167  0.00  0.00    +0.002 A 
ATOM      6  C   LIG    1       -1.274   3.139   0.347  0.00  0.00    +0.028 A 
ATOM      7  C   LIG    1       -0.074   3.866   0.345  0.00  0.00    +0.077 A 
ATOM      8  N   LIG    1       -0.052   5.194   0.513  0.00  0.00    -0.225 NA
ATOM      9  C   LIG    1        1.097   5.851   0.506  0.00  0.00    +0.198 A 
ATOM     10  N   LIG    1        2.272   5.243   0.335  0.00  0.00    -0.209 NA
ENDROOT
BRANCH   9  11
ATOM     11  C   LIG    1        1.078   7.313   0.695  0.00  0.00    +0.172 A 
ATOM     12  C   LIG    1       -0.032   8.080   0.881  0.00  0.00    +0.053 A 
ATOM     13  C   LIG    1        0.413   9.409   1.016  0.00  0.00    +0.042 A 
ATOM     14  C   LIG    1        1.757   9.389   0.907  0.00  0.00    +0.196 A 
ATOM     15  O   LIG    1        2.155   8.122   0.719  0.00  0.00    -0.460 OA
ENDBRANCH   9  11
BRANCH   1  16
ATOM     16  N   LIG    1        3.575   3.317  -0.013  0.00  0.00    -0.299 N 
ATOM     17  H   LIG    1        3.627   2.349  -0.059  0.00  0.00    +0.154 HD
BRANCH  16  21
ATOM     18  C   LIG    1        7.035   5.609  -0.347  0.00  0.00    +0.000 A 
ATOM     19  C   LIG    1        7.088   4.363   0.250  0.00  0.00    +0.002 A 
ATOM     20  C   LIG    1        5.943   3.600   0.362  0.00  0.00    +0.023 A 
ATOM     21  C   LIG    1        4.736   4.086  -0.125  0.00  0.00    +0.032 A 
ATOM     22  C   LIG    1        4.687   5.336  -0.730  0.00  0.00    +0.023 A 
ATOM     23  C   LIG    1        5.836   6.096  -0.834  0.00  0.00    +0.002 A 
ENDBRANCH  16  21
ENDBRANCH   1  16
TORSDOF 3
