REMARK  Name = ZINC06677784
REMARK                            x       y       z     vdW  Elec       q    Type
REMARK                         _______ _______ _______ _____ _____    ______ ____
ROOT
ATOM      1  C   LIG    1        1.173   1.783   0.000  0.00  0.00    +0.002 A 
ATOM      2  C   LIG    1        1.155   3.166   0.008  0.00  0.00    +0.005 A 
ATOM      3  C   LIG    1       -0.049   3.845   0.023  0.00  0.00    -0.026 A 
ATOM      4  C   LIG    1       -1.239   3.144   0.030  0.00  0.00    +0.028 A 
ATOM      5  C   LIG    1       -1.225   1.755   0.017  0.00  0.00    +0.025 A 
ATOM      6  C   LIG    1       -0.013   1.076   0.008  0.00  0.00    +0.023 A 
ENDROOT
BRANCH   5   7
ATOM      7  N   LIG    1       -2.426   1.042   0.020  0.00  0.00    -0.358 N 
ATOM      8  H   LIG    1       -3.272   1.518   0.026  0.00  0.00    +0.142 HD
ATOM      9  H   LIG    1       -2.415   0.072   0.015  0.00  0.00    +0.142 HD
ENDBRANCH   5   7
BRANCH   3  10
ATOM     10  C   LIG    1       -0.064   5.352   0.032  0.00  0.00    +0.158 C 
BRANCH  10  11
ATOM     11  N   LIG    1       -0.081   5.849  -1.346  0.00  0.00    -0.332 N 
ATOM     12  C   LIG    1        1.011   6.140  -2.118  0.00  0.00    +0.107 A 
ATOM     13  C   LIG    1        0.545   6.560  -3.309  0.00  0.00    +0.130 A 
ATOM     14  N   LIG    1       -0.795   6.535  -3.263  0.00  0.00    -0.244 NA
ATOM     15  C   LIG    1       -1.177   6.110  -2.090  0.00  0.00    +0.199 A 
ENDBRANCH  10  11
ENDBRANCH   3  10
TORSDOF 3
