REMARK  Name = ZINC06445734
REMARK                            x       y       z     vdW  Elec       q    Type
REMARK                         _______ _______ _______ _____ _____    ______ ____
ROOT
ATOM      1  C   LIG    1       -2.653   8.627  -3.320  0.00  0.00    +0.173 C 
ENDROOT
BRANCH   1   2
ATOM      2  C   LIG    1       -2.279   7.222  -2.922  0.00  0.00    +0.228 C 
ATOM      3  N   LIG    1       -1.965   6.946  -1.641  0.00  0.00    -0.278 N 
ATOM      4  H   LIG    1       -1.980   7.652  -0.975  0.00  0.00    +0.155 HD
ATOM      5  O   LIG    1       -2.260   6.341  -3.755  0.00  0.00    -0.275 OA
BRANCH   3   6
ATOM      6  C   LIG    1       -1.621   5.653  -1.274  0.00  0.00    +0.090 A 
ATOM      7  C   LIG    1       -1.271   5.177  -0.019  0.00  0.00    +0.084 A 
ATOM      8  C   LIG    1       -0.951   3.765   0.100  0.00  0.00    -0.018 A 
ATOM      9  C   LIG    1       -1.032   3.059  -1.049  0.00  0.00    -0.004 A 
ATOM     10  C   LIG    1       -0.761   1.597  -1.232  0.00  0.00    +0.043 C 
ATOM     11  C   LIG    1       -0.013   1.086   0.008  0.00  0.00    +0.005 C 
ATOM     12  C   LIG    1       -0.735   1.583   1.264  0.00  0.00    +0.005 C 
ATOM     13  C   LIG    1       -0.551   3.094   1.407  0.00  0.00    +0.037 C 
ATOM     14  S   LIG    1       -1.524   4.240  -2.273  0.00  0.00    -0.077 S 
BRANCH   7  15
ATOM     15  C   LIG    1       -1.226   6.046   1.118  0.00  0.00    +0.102 C 
ATOM     16  N   LIG    1       -1.191   6.736   2.020  0.00  0.00    -0.191 NA
ENDBRANCH   7  15
ENDBRANCH   3   6
ENDBRANCH   1   2
BRANCH   1  17
ATOM     17  S   LIG    1       -3.016   8.675  -5.093  0.00  0.00    -0.079 S 
BRANCH  17  21
ATOM     18  C   LIG    1       -3.991  12.326  -6.144  0.00  0.00    +0.067 A 
ATOM     19  C   LIG    1       -3.757  12.471  -4.814  0.00  0.00    +0.139 A 
ATOM     20  N   LIG    1       -3.413  11.277  -4.316  0.00  0.00    -0.230 NA
ATOM     21  C   LIG    1       -3.411  10.382  -5.278  0.00  0.00    +0.167 A 
ATOM     22  N   LIG    1       -3.771  10.992  -6.441  0.00  0.00    -0.333 N 
ATOM     23  H   LIG    1       -3.859  10.559  -7.338  0.00  0.00    +0.168 HD
BRANCH  18  30
ATOM     24  C   LIG    1       -4.602  13.082  -8.438  0.00  0.00    +0.011 A 
ATOM     25  C   LIG    1       -4.991  14.074  -9.314  0.00  0.00    +0.020 A 
ATOM     26  C   LIG    1       -5.172  15.370  -8.861  0.00  0.00    +0.041 A 
ATOM     27 CL   LIG    1       -5.654  16.614  -9.972  0.00  0.00    -0.084 Cl
ATOM     28  C   LIG    1       -4.970  15.677  -7.526  0.00  0.00    +0.020 A 
ATOM     29  C   LIG    1       -4.587  14.693  -6.639  0.00  0.00    +0.011 A 
ATOM     30  C   LIG    1       -4.402  13.385  -7.089  0.00  0.00    -0.000 A 
ENDBRANCH  18  30
ENDBRANCH  17  21
ENDBRANCH   1  17
TORSDOF 6
