REMARK  Name = ZINC06203318
REMARK                            x       y       z     vdW  Elec       q    Type
REMARK                         _______ _______ _______ _____ _____    ______ ____
ROOT
ATOM      1  C   LIG    1       -0.697   1.554   3.746  0.00  0.00    -0.035 A 
ATOM      2  C   LIG    1       -1.829   2.339   3.633  0.00  0.00    +0.050 A 
ATOM      3  C   LIG    1       -2.479   2.783   4.775  0.00  0.00    +0.124 A 
ATOM      4  C   LIG    1       -1.988   2.451   6.030  0.00  0.00    +0.039 A 
ATOM      5  C   LIG    1       -0.848   1.672   6.143  0.00  0.00    +0.128 A 
ATOM      6  O   LIG    1       -0.329   1.334   7.352  0.00  0.00    -0.486 OA
ATOM      7  C   LIG    1       -1.127   1.529   8.521  0.00  0.00    +0.109 C 
ATOM      8  C   LIG    1       -0.255   1.401   9.771  0.00  0.00    +0.055 C 
ATOM      9  C   LIG    1       -2.249   0.489   8.562  0.00  0.00    +0.055 C 
ATOM     10  C   LIG    1       -1.731   2.947   8.445  0.00  0.00    +0.044 C 
ATOM     11  C   LIG    1       -0.580   3.912   8.133  0.00  0.00    +0.035 C 
ATOM     12  C   LIG    1       -1.074   5.203   7.588  0.00  0.00    -0.025 C 
ATOM     13  C   LIG    1       -2.262   5.386   7.109  0.00  0.00    -0.048 C 
ATOM     14  C   LIG    1       -3.308   4.314   7.048  0.00  0.00    +0.041 C 
ATOM     15  C   LIG    1       -2.702   2.938   7.258  0.00  0.00    +0.037 C 
ATOM     16  C   LIG    1       -0.206   1.224   4.993  0.00  0.00    +0.050 A 
ENDROOT
BRANCH   1  17
ATOM     17  C   LIG    1        0.005   1.064   2.506  0.00  0.00    -0.010 C 
ATOM     18  C   LIG    1        1.441   1.593   2.490  0.00  0.00    +0.016 C 
ATOM     19  C   LIG    1        0.025  -0.466   2.503  0.00  0.00    +0.016 C 
BRANCH  17  20
ATOM     20  C   LIG    1       -0.738   1.567   1.267  0.00  0.00    +0.011 C 
BRANCH  20  21
ATOM     21  C   LIG    1       -0.025   1.069   0.008  0.00  0.00    +0.001 C 
BRANCH  21  22
ATOM     22  C   LIG    1       -0.767   1.572  -1.232  0.00  0.00    +0.000 C 
BRANCH  22  23
ATOM     23  C   LIG    1       -0.054   1.074  -2.490  0.00  0.00    -0.000 C 
BRANCH  23  25
ATOM     24  C   LIG    1       -0.084   1.079  -4.989  0.00  0.00    +0.004 C 
ATOM     25  C   LIG    1       -0.797   1.577  -3.730  0.00  0.00    -0.003 C 
ENDBRANCH  23  25
ENDBRANCH  22  23
ENDBRANCH  21  22
ENDBRANCH  20  21
ENDBRANCH  17  20
ENDBRANCH   1  17
BRANCH   3  26
ATOM     26  O   LIG    1       -3.595   3.551   4.664  0.00  0.00    -0.506 OA
ATOM     27  H   LIG    1       -4.411   3.045   4.555  0.00  0.00    +0.292 HD
ENDBRANCH   3  26
BRANCH  13  28
ATOM     28  C   LIG    1       -2.613   6.753   6.582  0.00  0.00    +0.186 C 
BRANCH  28  29
ATOM     29  O   LIG    1       -1.489   7.624   6.730  0.00  0.00    -0.391 OA
ATOM     30  H   LIG    1       -1.644   8.523   6.410  0.00  0.00    +0.210 HD
ENDBRANCH  28  29
ENDBRANCH  13  28
TORSDOF 9
