REMARK  Name = ZINC08234358
REMARK                            x       y       z     vdW  Elec       q    Type
REMARK                         _______ _______ _______ _____ _____    ______ ____
ROOT
ATOM      1  C   LIG    1       -0.091   1.835  -2.595  0.00  0.00    +0.005 C 
ENDROOT
BRANCH   1   2
ATOM      2  C   LIG    1       -0.170   1.334  -4.038  0.00  0.00    +0.000 C 
BRANCH   2   3
ATOM      3  C   LIG    1       -1.630   1.055  -4.402  0.00  0.00    +0.000 C 
BRANCH   3   4
ATOM      4  C   LIG    1       -1.710   0.554  -5.845  0.00  0.00    +0.000 C 
BRANCH   4   5
ATOM      5  C   LIG    1       -3.169   0.275  -6.208  0.00  0.00    +0.004 C 
BRANCH   5   6
ATOM      6  C   LIG    1       -3.249  -0.226  -7.652  0.00  0.00    +0.027 C 
BRANCH   6   8
ATOM      7  C   LIG    1       -5.206   0.030  -9.089  0.00  0.00    -0.031 C 
ATOM      8  C   LIG    1       -4.687  -0.501  -8.010  0.00  0.00    -0.031 C 
BRANCH   7   9
ATOM      9  C   LIG    1       -4.327   0.773 -10.061  0.00  0.00    +0.027 C 
BRANCH   9  10
ATOM     10  C   LIG    1       -4.514   0.194 -11.464  0.00  0.00    +0.004 C 
BRANCH  10  11
ATOM     11  C   LIG    1       -3.621   0.949 -12.451  0.00  0.00    +0.000 C 
BRANCH  11  12
ATOM     12  C   LIG    1       -3.808   0.369 -13.854  0.00  0.00    -0.000 C 
BRANCH  12  14
ATOM     13  C   LIG    1       -3.102   0.544 -16.245  0.00  0.00    +0.004 C 
ATOM     14  C   LIG    1       -2.915   1.124 -14.841  0.00  0.00    -0.003 C 
ENDBRANCH  12  14
ENDBRANCH  11  12
ENDBRANCH  10  11
ENDBRANCH   9  10
ENDBRANCH   7   9
ENDBRANCH   6   8
ENDBRANCH   5   6
ENDBRANCH   4   5
ENDBRANCH   3   4
ENDBRANCH   2   3
ENDBRANCH   1   2
BRANCH   1  15
ATOM     15  C   LIG    1        1.369   2.114  -2.231  0.00  0.00    +0.036 C 
BRANCH  15  16
ATOM     16  C   LIG    1        1.447   2.608  -0.809  0.00  0.00    -0.030 A 
ATOM     17  C   LIG    1        1.468   3.961  -0.549  0.00  0.00    +0.004 A 
ATOM     18  C   LIG    1        1.540   4.420   0.756  0.00  0.00    +0.004 A 
ATOM     19  C   LIG    1        1.593   3.529   1.809  0.00  0.00    +0.046 A 
ATOM     20  C   LIG    1        1.567   2.164   1.566  0.00  0.00    +0.131 A 
ATOM     21  C   LIG    1        1.499   1.694   0.246  0.00  0.00    +0.103 A 
BRANCH  21  22
ATOM     22  C   LIG    1        1.477   0.246  -0.025  0.00  0.00    +0.341 C 
ATOM     23  O   LIG    1        2.519  -0.357  -0.194  0.00  0.00    -0.245 OA
BRANCH  22  24
ATOM     24  O   LIG    1        0.302  -0.410  -0.086  0.00  0.00    -0.477 OA
ATOM     25  H   LIG    1       -0.502   0.054   0.044  0.00  0.00    +0.295 HD
ENDBRANCH  22  24
ENDBRANCH  21  22
BRANCH  20  26
ATOM     26  O   LIG    1        1.613   1.287   2.600  0.00  0.00    -0.506 OA
ATOM     27  H   LIG    1        2.509   1.027   2.856  0.00  0.00    +0.292 HD
ENDBRANCH  20  26
ENDBRANCH  15  16
ENDBRANCH   1  15
TORSDOF 16
