REMARK  Name = ZINC08398793
REMARK                            x       y       z     vdW  Elec       q    Type
REMARK                         _______ _______ _______ _____ _____    ______ ____
ROOT
ATOM      1  C   LIG    1        2.317  -7.987   0.368  0.00  0.00    +0.010 C 
ENDROOT
BRANCH   1   2
ATOM      2  C   LIG    1        1.188  -6.958   0.278  0.00  0.00    +0.097 C 
BRANCH   2   5
ATOM      3  N   LIG    1        0.964  -4.503   0.078  0.00  0.00    -0.206 N 
ATOM      4  H   LIG    1        0.002  -4.622   0.082  0.00  0.00    +0.177 HD
ATOM      5  C   LIG    1        1.776  -5.575   0.169  0.00  0.00    +0.232 C 
ATOM      6  O   LIG    1        2.979  -5.426   0.164  0.00  0.00    -0.274 OA
BRANCH   3  16
ATOM      7  C   LIG    1       -0.042   1.448  -0.240  0.00  0.00    +0.138 C 
ATOM      8  N   LIG    1       -0.007  -0.009  -0.090  0.00  0.00    -0.269 N 
ATOM      9  C   LIG    1       -1.119  -0.793   0.199  0.00  0.00    +0.046 A 
ATOM     10  C   LIG    1       -2.453  -0.463   0.408  0.00  0.00    +0.024 A 
ATOM     11  C   LIG    1       -3.377  -1.451   0.683  0.00  0.00    +0.002 A 
ATOM     12  C   LIG    1       -2.989  -2.779   0.756  0.00  0.00    +0.001 A 
ATOM     13  C   LIG    1       -1.668  -3.126   0.552  0.00  0.00    +0.012 A 
ATOM     14  C   LIG    1       -0.731  -2.137   0.272  0.00  0.00    +0.028 A 
ATOM     15  C   LIG    1        0.727  -2.167   0.008  0.00  0.00    +0.153 C 
ATOM     16  N   LIG    1        1.511  -3.217  -0.023  0.00  0.00    -0.175 NA
ATOM     17  C   LIG    1        1.102  -0.757  -0.219  0.00  0.00    +0.271 C 
ATOM     18  O   LIG    1        2.218  -0.345  -0.474  0.00  0.00    -0.268 OA
ENDBRANCH   3  16
ENDBRANCH   2   5
ENDBRANCH   1   2
BRANCH   1  19
ATOM     19  C   LIG    1        1.720  -9.391   0.478  0.00  0.00    +0.010 C 
BRANCH  19  20
ATOM     20  C   LIG    1        2.850 -10.420   0.568  0.00  0.00    +0.097 C 
BRANCH  20  21
ATOM     21  C   LIG    1        2.262 -11.803   0.676  0.00  0.00    +0.232 C 
ATOM     22  N   LIG    1        3.074 -12.875   0.768  0.00  0.00    -0.206 N 
ATOM     23  H   LIG    1        4.036 -12.756   0.764  0.00  0.00    +0.177 HD
ATOM     24  O   LIG    1        1.058 -11.952   0.681  0.00  0.00    -0.274 OA
BRANCH  22  25
ATOM     25  N   LIG    1        2.527 -14.161   0.869  0.00  0.00    -0.175 NA
ATOM     26  C   LIG    1        3.317 -15.204   0.958  0.00  0.00    +0.153 C 
ATOM     27  C   LIG    1        2.922 -16.628   1.064  0.00  0.00    +0.028 A 
ATOM     28  C   LIG    1        1.692 -17.274   1.103  0.00  0.00    +0.012 A 
ATOM     29  C   LIG    1        1.645 -18.650   1.210  0.00  0.00    +0.001 A 
ATOM     30  C   LIG    1        2.819 -19.381   1.277  0.00  0.00    +0.002 A 
ATOM     31  C   LIG    1        4.045 -18.748   1.240  0.00  0.00    +0.024 A 
ATOM     32  C   LIG    1        4.112 -17.363   1.133  0.00  0.00    +0.046 A 
ATOM     33  N   LIG    1        5.195 -16.493   1.075  0.00  0.00    -0.269 N 
ATOM     34  C   LIG    1        6.597 -16.917   1.121  0.00  0.00    +0.138 C 
ATOM     35  C   LIG    1        4.794 -15.215   0.967  0.00  0.00    +0.271 C 
ATOM     36  O   LIG    1        5.518 -14.241   0.892  0.00  0.00    -0.268 OA
ENDBRANCH  22  25
ENDBRANCH  20  21
ENDBRANCH  19  20
ENDBRANCH   1  19
TORSDOF 7
