REMARK  Name = ZINC08438953
REMARK                            x       y       z     vdW  Elec       q    Type
REMARK                         _______ _______ _______ _____ _____    ______ ____
ROOT
ATOM      1  C   LIG    1        1.910   6.920   0.203  0.00  0.00    +0.162 A 
ATOM      2  C   LIG    1        2.540   5.696   0.103  0.00  0.00    +0.057 A 
ATOM      3  C   LIG    1        1.780   4.519   0.106  0.00  0.00    -0.020 A 
ATOM      4  C   LIG    1        0.386   4.592   0.221  0.00  0.00    +0.012 A 
ATOM      5  C   LIG    1       -0.233   5.818   0.325  0.00  0.00    +0.050 A 
ATOM      6  C   LIG    1        0.521   6.984   0.316  0.00  0.00    +0.162 A 
ENDROOT
BRANCH   3   7
ATOM      7  C   LIG    1        2.443   3.214  -0.004  0.00  0.00    +0.028 C 
ATOM      8  C   LIG    1        3.769   3.148  -0.288  0.00  0.00    +0.080 C 
ATOM      9  C   LIG    1        4.673   1.981  -0.297  0.00  0.00    +0.261 C 
ATOM     10  N   LIG    1        5.935   2.211  -0.615  0.00  0.00    -0.224 N 
ATOM     11  C   LIG    1        6.371   3.451  -0.915  0.00  0.00    +0.286 C 
ATOM     12  O   LIG    1        7.494   3.804  -1.222  0.00  0.00    -0.262 OA
ATOM     13  O   LIG    1        4.275   0.863  -0.026  0.00  0.00    -0.269 OA
ATOM     14  S   LIG    1        4.901   4.451  -0.753  0.00  0.00    -0.026 S 
BRANCH  10  15
ATOM     15  C   LIG    1        6.882   1.093  -0.642  0.00  0.00    +0.152 C 
BRANCH  15  16
ATOM     16  C   LIG    1        7.511   0.935   0.718  0.00  0.00    -0.030 A 
ATOM     17  C   LIG    1        8.679   1.608   1.022  0.00  0.00    +0.005 A 
ATOM     18  C   LIG    1        9.254   1.466   2.271  0.00  0.00    +0.000 A 
ATOM     19  C   LIG    1        8.665   0.643   3.213  0.00  0.00    +0.000 A 
ATOM     20  C   LIG    1        7.500  -0.035   2.907  0.00  0.00    +0.000 A 
ATOM     21  C   LIG    1        6.923   0.111   1.660  0.00  0.00    +0.005 A 
ENDBRANCH  15  16
ENDBRANCH  10  15
ENDBRANCH   3   7
BRANCH   1  22
ATOM     22  O   LIG    1        2.644   8.065   0.194  0.00  0.00    -0.489 OA
BRANCH  22  24
ATOM     23  C   LIG    1        4.712   9.311   0.083  0.00  0.00    +0.048 C 
ATOM     24  C   LIG    1        4.061   7.926   0.074  0.00  0.00    +0.226 C 
ENDBRANCH  22  24
ENDBRANCH   1  22
BRANCH   6  25
ATOM     25  O   LIG    1       -0.095   8.190   0.420  0.00  0.00    -0.484 OA
BRANCH  25  26
ATOM     26  C   LIG    1       -1.520   8.182   0.534  0.00  0.00    +0.264 C 
BRANCH  26  27
ATOM     27  C   LIG    1       -2.022   9.599   0.638  0.00  0.00    -0.010 A 
ATOM     28  C   LIG    1       -2.162  10.191   1.881  0.00  0.00    +0.008 A 
ATOM     29  C   LIG    1       -2.617  11.490   1.982  0.00  0.00    +0.015 A 
ATOM     30  C   LIG    1       -2.948  12.203   0.828  0.00  0.00    +0.059 A 
ATOM     31  C   LIG    1       -2.810  11.597  -0.422  0.00  0.00    +0.015 A 
ATOM     32  C   LIG    1       -2.348  10.300  -0.510  0.00  0.00    +0.008 A 
BRANCH  30  33
ATOM     33  C   LIG    1       -3.441  13.591   0.930  0.00  0.00    +0.337 C 
ATOM     34  O   LIG    1       -3.727  14.209  -0.076  0.00  0.00    -0.245 OA
BRANCH  33  35
ATOM     35  O   LIG    1       -3.572  14.173   2.138  0.00  0.00    -0.477 OA
ATOM     36  H   LIG    1       -3.351  13.696   2.914  0.00  0.00    +0.295 HD
ENDBRANCH  33  35
ENDBRANCH  30  33
ENDBRANCH  26  27
ENDBRANCH  25  26
ENDBRANCH   6  25
TORSDOF 10
