REMARK  Name = ZINC06745293
REMARK                            x       y       z     vdW  Elec       q    Type
REMARK                         _______ _______ _______ _____ _____    ______ ____
ROOT
ATOM      1  C   LIG    1        2.863   4.294  -0.003  0.00  0.00    +0.041 A 
ATOM      2  C   LIG    1        3.696   4.520  -1.189  0.00  0.00    +0.014 A 
ATOM      3  C   LIG    1        3.458   4.470  -2.564  0.00  0.00    +0.014 A 
ATOM      4  C   LIG    1        4.471   4.742  -3.438  0.00  0.00    +0.039 A 
ATOM      5  C   LIG    1        5.739   5.070  -2.970  0.00  0.00    +0.125 A 
ATOM      6  F   LIG    1        6.729   5.336  -3.850  0.00  0.00    -0.205 F 
ATOM      7  C   LIG    1        5.995   5.125  -1.616  0.00  0.00    +0.064 A 
ATOM      8  C   LIG    1        4.974   4.850  -0.710  0.00  0.00    +0.053 A 
ATOM      9  N   LIG    1        4.923   4.824   0.672  0.00  0.00    -0.342 N 
ATOM     10  C   LIG    1        5.796   5.036   1.840  0.00  0.00    +0.123 C 
ATOM     11  C   LIG    1        4.844   5.256   3.037  0.00  0.00    +0.032 C 
ATOM     12  C   LIG    1        3.585   4.481   2.593  0.00  0.00    +0.049 C 
ATOM     13  C   LIG    1        3.649   4.496   1.077  0.00  0.00    +0.037 A 
ENDROOT
BRANCH   1  14
ATOM     14  S   LIG    1        1.159   3.848   0.011  0.00  0.00    -0.087 S 
BRANCH  14  21
ATOM     15  C   LIG    1       -0.017   1.377   0.010  0.00  0.00    +0.016 A 
ATOM     16  C   LIG    1        0.002  -0.004   0.002  0.00  0.00    +0.021 A 
ATOM     17  C   LIG    1        1.209  -0.681  -0.014  0.00  0.00    +0.041 A 
ATOM     18 CL   LIG    1        1.228  -2.417  -0.024  0.00  0.00    -0.084 Cl
ATOM     19  C   LIG    1        2.401   0.023  -0.021  0.00  0.00    +0.021 A 
ATOM     20  C   LIG    1        2.389   1.403  -0.012  0.00  0.00    +0.016 A 
ATOM     21  C   LIG    1        1.178   2.086   0.002  0.00  0.00    +0.013 A 
ENDBRANCH  14  21
ENDBRANCH   1  14
BRANCH  12  22
ATOM     22  C   LIG    1        2.318   5.186   3.081  0.00  0.00    +0.130 C 
BRANCH  22  23
ATOM     23  C   LIG    1        2.214   5.052   4.579  0.00  0.00    +0.305 C 
ATOM     24  O   LIG    1        3.065   4.452   5.192  0.00  0.00    -0.251 OA
BRANCH  23  25
ATOM     25  O   LIG    1        1.175   5.597   5.231  0.00  0.00    -0.481 OA
ATOM     26  H   LIG    1        0.515   6.062   4.755  0.00  0.00    +0.295 HD
ENDBRANCH  23  25
ENDBRANCH  22  23
ENDBRANCH  12  22
TORSDOF 5
