REMARK  Name = ZINC06019591
REMARK                            x       y       z     vdW  Elec       q    Type
REMARK                         _______ _______ _______ _____ _____    ______ ____
ROOT
ATOM      1  C   LIG    1       -2.675   2.883   5.187  0.00  0.00    +0.011 C 
ATOM      2  C   LIG    1       -2.066   3.074   6.390  0.00  0.00    +0.073 C 
ATOM      3  C   LIG    1       -3.083   3.419   7.389  0.00  0.00    +0.340 C 
ATOM      4  O   LIG    1       -4.301   3.444   6.820  0.00  0.00    -0.456 OA
ATOM      5  O   LIG    1       -2.857   3.649   8.561  0.00  0.00    -0.245 OA
ATOM      6  C   LIG    1       -4.151   3.120   5.410  0.00  0.00    +0.269 C 
ENDROOT
BRANCH   2   7
ATOM      7  C   LIG    1       -0.613   2.952   6.647  0.00  0.00    -0.008 A 
ATOM      8  C   LIG    1        0.019   1.715   6.518  0.00  0.00    +0.012 A 
ATOM      9  C   LIG    1        1.374   1.606   6.753  0.00  0.00    +0.042 A 
ATOM     10  C   LIG    1        2.107   2.721   7.128  0.00  0.00    +0.158 A 
ATOM     11  F   LIG    1        3.432   2.608   7.362  0.00  0.00    -0.202 F 
ATOM     12  C   LIG    1        1.482   3.953   7.264  0.00  0.00    +0.159 A 
ATOM     13  F   LIG    1        2.201   5.037   7.630  0.00  0.00    -0.202 F 
ATOM     14  C   LIG    1        0.127   4.072   7.025  0.00  0.00    +0.050 A 
ENDBRANCH   2   7
BRANCH   1  18
ATOM     15  C   LIG    1       -0.798   1.847   1.530  0.00  0.00    +0.088 A 
ATOM     16  C   LIG    1       -0.518   3.065   2.126  0.00  0.00    +0.027 A 
ATOM     17  C   LIG    1       -1.128   3.412   3.313  0.00  0.00    +0.010 A 
ATOM     18  C   LIG    1       -2.025   2.525   3.920  0.00  0.00    -0.018 A 
ATOM     19  C   LIG    1       -2.298   1.293   3.312  0.00  0.00    +0.010 A 
ATOM     20  C   LIG    1       -1.683   0.964   2.123  0.00  0.00    +0.027 A 
BRANCH  15  22
ATOM     21  C   LIG    1       -1.135   2.034  -1.279  0.00  0.00    +0.200 C 
ATOM     22  S   LIG    1       -0.017   1.417   0.010  0.00  0.00    -0.006 S 
ATOM     23  O   LIG    1        1.195   2.158   0.002  0.00  0.00    -0.170 OA
ATOM     24  O   LIG    1        0.002  -0.004   0.002  0.00  0.00    -0.170 OA
ENDBRANCH  15  22
ENDBRANCH   1  18
TORSDOF 3
