REMARK  Name = ZINC06718665
REMARK                            x       y       z     vdW  Elec       q    Type
REMARK                         _______ _______ _______ _____ _____    ______ ____
ROOT
ATOM      1  N   LIG    1       -4.455   0.558 -14.556  0.00  0.00    -0.269 N 
ATOM      2  H   LIG    1       -3.890   0.431 -15.335  0.00  0.00    +0.156 HD
ATOM      3  C   LIG    1       -3.993   1.246 -13.494  0.00  0.00    +0.307 C 
ATOM      4  N   LIG    1       -2.730   1.715 -13.492  0.00  0.00    -0.275 N 
ATOM      5  C   LIG    1       -2.076   2.478 -12.422  0.00  0.00    +0.150 C 
ATOM      6  C   LIG    1       -0.669   2.778 -12.875  0.00  0.00    +0.034 A 
ATOM      7  C   LIG    1       -0.472   2.253 -14.102  0.00  0.00    +0.060 A 
ATOM      8  N   LIG    1        0.795   2.539 -14.477  0.00  0.00    -0.278 N 
ATOM      9  N   LIG    1        1.398   3.270 -13.447  0.00  0.00    -0.158 NA
ATOM     10  H   LIG    1        1.226   2.274 -15.340  0.00  0.00    +0.189 HD
ATOM     11  C   LIG    1        0.523   3.412 -12.480  0.00  0.00    +0.152 A 
ATOM     12  C   LIG    1       -1.733   1.564 -14.558  0.00  0.00    +0.164 C 
ATOM     13  O   LIG    1       -4.717   1.445 -12.537  0.00  0.00    -0.252 OA
ENDROOT
BRANCH   1  19
ATOM     14  C   LIG    1       -6.639   0.324 -15.560  0.00  0.00    -0.026 A 
ATOM     15  C   LIG    1       -7.915  -0.207 -15.540  0.00  0.00    +0.005 A 
ATOM     16  C   LIG    1       -8.308  -1.025 -14.498  0.00  0.00    +0.001 A 
ATOM     17  C   LIG    1       -7.426  -1.319 -13.475  0.00  0.00    +0.005 A 
ATOM     18  C   LIG    1       -6.148  -0.796 -13.491  0.00  0.00    -0.026 A 
ATOM     19  C   LIG    1       -5.749   0.026 -14.537  0.00  0.00    +0.041 A 
BRANCH  14  21
ATOM     20  C   LIG    1       -5.363   0.422 -17.684  0.00  0.00    +0.009 C 
ATOM     21  C   LIG    1       -6.213   1.220 -16.694  0.00  0.00    +0.033 C 
ENDBRANCH  14  21
BRANCH  18  22
ATOM     22  C   LIG    1       -5.187  -1.117 -12.375  0.00  0.00    +0.033 C 
ATOM     23  C   LIG    1       -5.973  -1.442 -11.103  0.00  0.00    +0.009 C 
ENDBRANCH  18  22
ENDBRANCH   1  19
BRANCH  11  24
ATOM     24  N   LIG    1        0.737   4.082 -11.269  0.00  0.00    -0.265 N 
ATOM     25  H   LIG    1        0.025   4.138 -10.613  0.00  0.00    +0.157 HD
ATOM     26  C   LIG    1        1.933   4.649 -11.014  0.00  0.00    +0.249 C 
ATOM     27  O   LIG    1        2.827   4.578 -11.836  0.00  0.00    -0.270 OA
BRANCH  26  28
ATOM     28  C   LIG    1        2.159   5.354  -9.739  0.00  0.00    +0.037 A 
ATOM     29  C   LIG    1        3.399   5.943  -9.473  0.00  0.00    +0.015 A 
ATOM     30  C   LIG    1        3.606   6.601  -8.282  0.00  0.00    +0.024 A 
ATOM     31  C   LIG    1        2.582   6.681  -7.343  0.00  0.00    +0.030 A 
ATOM     32  C   LIG    1        1.347   6.092  -7.602  0.00  0.00    +0.024 A 
ATOM     33  C   LIG    1        1.132   5.437  -8.793  0.00  0.00    +0.015 A 
BRANCH  31  34
ATOM     34  N   LIG    1        2.794   7.346  -6.140  0.00  0.00    -0.333 N 
ATOM     35  C   LIG    1        1.589   7.312  -5.299  0.00  0.00    +0.086 C 
ATOM     36  C   LIG    1        1.888   7.983  -3.957  0.00  0.00    -0.060 C 
ATOM     37  N   LIG    1        2.304   9.380  -4.204  0.00  0.00    +0.380 N 
ATOM     38  H   LIG    1        1.553   9.867  -4.707  0.00  0.00    -0.082 HD
ATOM     39  C   LIG    1        2.549  10.069  -2.919  0.00  0.00    -0.096 C 
ATOM     40  C   LIG    1        3.529   9.402  -5.031  0.00  0.00    -0.060 C 
ATOM     41  C   LIG    1        3.230   8.730  -6.374  0.00  0.00    +0.086 C 
ENDBRANCH  31  34
ENDBRANCH  26  28
ENDBRANCH  11  24
TORSDOF 6
