REMARK  Name = ZINC05972962
REMARK                            x       y       z     vdW  Elec       q    Type
REMARK                         _______ _______ _______ _____ _____    ______ ____
ROOT
ATOM      1  C   LIG    1        2.824  -6.445   2.612  0.00  0.00    +0.007 C 
ATOM      2  C   LIG    1        3.990  -7.071   2.896  0.00  0.00    +0.006 C 
ATOM      3  C   LIG    1        5.366  -6.450   3.006  0.00  0.00    +0.049 C 
ATOM      4  C   LIG    1        6.305  -7.582   3.338  0.00  0.00    -0.015 C 
ATOM      5  C   LIG    1        5.624  -8.714   3.420  0.00  0.00    +0.047 C 
ATOM      6  C   LIG    1        4.194  -8.498   3.169  0.00  0.00    +0.182 C 
ATOM      7  O   LIG    1        3.327  -9.354   3.183  0.00  0.00    -0.288 OA
ENDROOT
BRANCH   1   9
ATOM      8  C   LIG    1        1.659  -4.386   2.086  0.00  0.00    -0.027 C 
ATOM      9  C   LIG    1        2.809  -5.004   2.365  0.00  0.00    -0.004 C 
BRANCH   8  10
ATOM     10  C   LIG    1        1.643  -2.901   1.831  0.00  0.00    +0.027 C 
BRANCH  10  11
ATOM     11  C   LIG    1        0.995  -2.623   0.474  0.00  0.00    +0.004 C 
BRANCH  11  12
ATOM     12  C   LIG    1        0.980  -1.115   0.216  0.00  0.00    +0.000 C 
BRANCH  12  14
ATOM     13  C   LIG    1        0.316   0.672  -1.400  0.00  0.00    +0.004 C 
ATOM     14  C   LIG    1        0.331  -0.836  -1.142  0.00  0.00    -0.003 C 
ENDBRANCH  12  14
ENDBRANCH  11  12
ENDBRANCH  10  11
ENDBRANCH   8  10
ENDBRANCH   1   9
BRANCH   3  15
ATOM     15  C   LIG    1        5.385  -5.402   4.121  0.00  0.00    +0.039 C 
BRANCH  15  16
ATOM     16  C   LIG    1        6.722  -4.708   4.136  0.00  0.00    -0.030 C 
ATOM     17  C   LIG    1        6.781  -3.400   4.102  0.00  0.00    -0.031 C 
BRANCH  17  18
ATOM     18  C   LIG    1        5.519  -2.585   4.220  0.00  0.00    +0.027 C 
BRANCH  18  19
ATOM     19  C   LIG    1        5.673  -1.567   5.351  0.00  0.00    +0.015 C 
BRANCH  19  20
ATOM     20  C   LIG    1        4.391  -0.739   5.471  0.00  0.00    +0.121 C 
BRANCH  20  21
ATOM     21  C   LIG    1        4.543   0.264   6.585  0.00  0.00    +0.305 C 
ATOM     22  O   LIG    1        5.580   0.313   7.224  0.00  0.00    -0.251 OA
BRANCH  21  23
ATOM     23  O   LIG    1        3.629   1.027   6.847  0.00  0.00    -0.481 OA
ATOM     24  H   LIG    1        2.832   0.989   6.356  0.00  0.00    +0.295 HD
ENDBRANCH  21  23
ENDBRANCH  20  21
ENDBRANCH  19  20
ENDBRANCH  18  19
ENDBRANCH  17  18
ENDBRANCH  15  16
ENDBRANCH   3  15
TORSDOF 12
