REMARK  Name = ZINC05966698
REMARK                            x       y       z     vdW  Elec       q    Type
REMARK                         _______ _______ _______ _____ _____    ______ ____
ROOT
ATOM      1  C   LIG    1       -3.962   3.508  -0.681  0.00  0.00    -0.096 C 
ATOM      2  N   LIG    1       -3.032   3.014   0.350  0.00  0.00    +0.380 N 
ATOM      3  H   LIG    1       -3.340   3.384   1.257  0.00  0.00    -0.082 HD
ATOM      4  C   LIG    1       -1.654   3.521   0.100  0.00  0.00    -0.068 C 
ATOM      5  C   LIG    1       -0.772   3.102   1.282  0.00  0.00    -0.004 C 
ATOM      6  C   LIG    1       -0.688   1.574   1.288  0.00  0.00    -0.007 C 
ATOM      7  C   LIG    1       -0.013   1.092   0.008  0.00  0.00    +0.011 C 
ATOM      8  C   LIG    1       -0.718   1.592  -1.244  0.00  0.00    -0.001 C 
ATOM      9  C   LIG    1       -2.082   0.974   1.433  0.00  0.00    -0.007 C 
ATOM     10  C   LIG    1       -0.989   3.088  -1.200  0.00  0.00    -0.015 C 
ATOM     11  C   LIG    1       -3.078   1.535   0.429  0.00  0.00    -0.078 C 
ENDROOT
BRANCH   6  12
ATOM     12  C   LIG    1        0.149   1.147   2.466  0.00  0.00    -0.038 A 
ATOM     13  C   LIG    1        0.676   2.098   3.320  0.00  0.00    +0.004 A 
ATOM     14  C   LIG    1        1.439   1.709   4.405  0.00  0.00    +0.004 A 
ATOM     15  C   LIG    1        1.687   0.369   4.631  0.00  0.00    +0.045 A 
ATOM     16  C   LIG    1        1.164  -0.587   3.773  0.00  0.00    +0.117 A 
ATOM     17  C   LIG    1        0.393  -0.194   2.688  0.00  0.00    +0.049 A 
BRANCH  16  18
ATOM     18  O   LIG    1        1.406  -1.906   3.994  0.00  0.00    -0.507 OA
ATOM     19  H   LIG    1        2.204  -2.237   3.559  0.00  0.00    +0.292 HD
ENDBRANCH  16  18
ENDBRANCH   6  12
TORSDOF 2
