REMARK  Name = ZINC05974561
REMARK                            x       y       z     vdW  Elec       q    Type
REMARK                         _______ _______ _______ _____ _____    ______ ____
ROOT
ATOM      1  C   LIG    1        5.287  -1.589  -1.586  0.00  0.00    +0.121 A 
ATOM      2  C   LIG    1        6.040  -2.003  -0.496  0.00  0.00    +0.046 A 
ATOM      3  C   LIG    1        7.229  -2.676  -0.696  0.00  0.00    +0.007 A 
ATOM      4  C   LIG    1        7.677  -2.925  -1.980  0.00  0.00    -0.043 A 
ATOM      5  C   LIG    1        6.931  -2.509  -3.068  0.00  0.00    +0.007 A 
ATOM      6  C   LIG    1        5.738  -1.841  -2.873  0.00  0.00    +0.046 A 
ENDROOT
BRANCH   1   7
ATOM      7  O   LIG    1        4.113  -0.932  -1.392  0.00  0.00    -0.487 OA
BRANCH   7   8
ATOM      8  C   LIG    1        3.711  -0.707  -0.039  0.00  0.00    +0.264 C 
BRANCH   8  12
ATOM      9  C   LIG    1       -0.017   1.378   0.010  0.00  0.00    +0.000 A 
ATOM     10  C   LIG    1        1.171   2.086   0.002  0.00  0.00    +0.000 A 
ATOM     11  C   LIG    1        2.377   1.411  -0.014  0.00  0.00    +0.007 A 
ATOM     12  C   LIG    1        2.396   0.029  -0.022  0.00  0.00    -0.010 A 
ATOM     13  C   LIG    1        1.208  -0.679  -0.014  0.00  0.00    +0.007 A 
ATOM     14  C   LIG    1        0.002  -0.004   0.002  0.00  0.00    +0.000 A 
ENDBRANCH   8  12
ENDBRANCH   7   8
ENDBRANCH   1   7
BRANCH   4  15
ATOM     15  C   LIG    1        8.979  -3.654  -2.195  0.00  0.00    +0.075 C 
BRANCH  15  16
ATOM     16  C   LIG    1       10.106  -2.656  -2.267  0.00  0.00    +0.015 A 
ATOM     17  C   LIG    1       10.555  -2.184  -3.484  0.00  0.00    +0.121 A 
ATOM     18  N   LIG    1       11.548  -1.307  -3.514  0.00  0.00    -0.223 NA
ATOM     19  C   LIG    1       12.113  -0.881  -2.393  0.00  0.00    +0.214 A 
ATOM     20  N   LIG    1       11.711  -1.309  -1.206  0.00  0.00    -0.200 NA
ATOM     21  C   LIG    1       10.717  -2.185  -1.103  0.00  0.00    +0.125 A 
BRANCH  19  22
ATOM     22  N   LIG    1       13.147   0.036  -2.466  0.00  0.00    -0.327 N 
ATOM     23  H   LIG    1       13.569   0.356  -1.654  0.00  0.00    +0.145 HD
ATOM     24  H   LIG    1       13.451   0.357  -3.330  0.00  0.00    +0.145 HD
ENDBRANCH  19  22
BRANCH  21  25
ATOM     25  N   LIG    1       10.296  -2.627   0.141  0.00  0.00    -0.343 N 
ATOM     26  H   LIG    1       10.726  -2.294   0.945  0.00  0.00    +0.144 HD
ATOM     27  H   LIG    1        9.572  -3.269   0.208  0.00  0.00    +0.144 HD
ENDBRANCH  21  25
ENDBRANCH  15  16
ENDBRANCH   4  15
TORSDOF 7
