REMARK  Name = ZINC08463982
REMARK                            x       y       z     vdW  Elec       q    Type
REMARK                         _______ _______ _______ _____ _____    ______ ____
ROOT
ATOM      1  C   LIG    1        0.036   1.374   0.208  0.00  0.00    -0.095 C 
ATOM      2  N   LIG    1        0.029  -0.091   0.110  0.00  0.00    +0.382 N 
ATOM      3  H   LIG    1        0.315  -0.366  -0.818  0.00  0.00    -0.081 HD
ATOM      4  C   LIG    1       -1.326  -0.592   0.369  0.00  0.00    -0.061 C 
ATOM      5  C   LIG    1       -1.357  -2.111   0.188  0.00  0.00    -0.015 C 
ATOM      6  C   LIG    1       -0.376  -2.756   1.171  0.00  0.00    -0.003 C 
ATOM      7  C   LIG    1        1.021  -2.172   0.941  0.00  0.00    -0.015 C 
ATOM      8  C   LIG    1        0.964  -0.651   1.094  0.00  0.00    -0.061 C 
ENDROOT
BRANCH   4   9
ATOM      9  C   LIG    1       -2.305   0.058  -0.611  0.00  0.00    +0.064 C 
BRANCH   9  10
ATOM     10  C   LIG    1       -3.714  -0.338  -0.251  0.00  0.00    +0.162 C 
ATOM     11  O   LIG    1       -3.924  -0.979   0.757  0.00  0.00    -0.292 OA
BRANCH  10  12
ATOM     12  C   LIG    1       -4.834   0.054  -1.121  0.00  0.00    +0.017 A 
ATOM     13  C   LIG    1       -4.594   0.789  -2.287  0.00  0.00    +0.011 A 
ATOM     14  C   LIG    1       -5.649   1.152  -3.097  0.00  0.00    +0.001 A 
ATOM     15  C   LIG    1       -6.942   0.791  -2.760  0.00  0.00    +0.000 A 
ATOM     16  C   LIG    1       -7.187   0.065  -1.607  0.00  0.00    +0.001 A 
ATOM     17  C   LIG    1       -6.143  -0.311  -0.790  0.00  0.00    +0.011 A 
ENDBRANCH  10  12
ENDBRANCH   9  10
ENDBRANCH   4   9
BRANCH   8  18
ATOM     18  C   LIG    1        2.357  -0.063   0.865  0.00  0.00    +0.064 C 
BRANCH  18  19
ATOM     19  C   LIG    1        3.283  -0.524   1.961  0.00  0.00    +0.162 C 
ATOM     20  O   LIG    1        2.847  -1.164   2.894  0.00  0.00    -0.292 OA
BRANCH  19  21
ATOM     21  C   LIG    1        4.717  -0.197   1.899  0.00  0.00    +0.017 A 
ATOM     22  C   LIG    1        5.223   0.546   0.828  0.00  0.00    +0.011 A 
ATOM     23  C   LIG    1        6.567   0.849   0.777  0.00  0.00    +0.001 A 
ATOM     24  C   LIG    1        7.415   0.419   1.783  0.00  0.00    +0.000 A 
ATOM     25  C   LIG    1        6.922  -0.317   2.846  0.00  0.00    +0.001 A 
ATOM     26  C   LIG    1        5.579  -0.623   2.914  0.00  0.00    +0.011 A 
ENDBRANCH  19  21
ENDBRANCH  18  19
ENDBRANCH   8  18
TORSDOF 6
