REMARK  Name = ZINC06919863
REMARK                            x       y       z     vdW  Elec       q    Type
REMARK                         _______ _______ _______ _____ _____    ______ ____
ROOT
ATOM      1  C   LIG    1        6.361   5.853  -0.029  0.00  0.00    +0.250 C 
ATOM      2  N   LIG    1        5.097   5.385  -0.019  0.00  0.00    -0.261 N 
ATOM      3  H   LIG    1        4.250   6.087  -0.006  0.00  0.00    +0.157 HD
ATOM      4  O   LIG    1        7.297   5.077  -0.043  0.00  0.00    -0.270 OA
ENDROOT
BRANCH   1   8
ATOM      5  C   LIG    1        7.073  10.040  -0.012  0.00  0.00    +0.120 A 
ATOM      6  C   LIG    1        8.144   9.154  -0.028  0.00  0.00    +0.046 A 
ATOM      7  C   LIG    1        7.918   7.796  -0.033  0.00  0.00    +0.016 A 
ATOM      8  C   LIG    1        6.608   7.308  -0.023  0.00  0.00    +0.037 A 
ATOM      9  C   LIG    1        5.534   8.202  -0.013  0.00  0.00    +0.016 A 
ATOM     10  C   LIG    1        5.769   9.558  -0.001  0.00  0.00    +0.046 A 
BRANCH   5  12
ATOM     11  C   LIG    1        6.154  12.230   0.010  0.00  0.00    +0.277 C 
ATOM     12  O   LIG    1        7.301  11.377  -0.006  0.00  0.00    -0.495 OA
ENDBRANCH   5  12
ENDBRANCH   1   8
BRANCH   2  13
ATOM     13  C   LIG    1        4.864   4.016  -0.024  0.00  0.00    +0.165 A 
ATOM     14  N   LIG    1        3.716   3.365  -0.016  0.00  0.00    -0.223 NA
ATOM     15  C   LIG    1        3.677   2.040  -0.024  0.00  0.00    +0.098 A 
ATOM     16  C   LIG    1        4.849   1.335  -0.034  0.00  0.00    +0.078 A 
ATOM     17  S   LIG    1        6.039   2.669  -0.044  0.00  0.00    -0.060 S 
BRANCH  15  18
ATOM     18  C   LIG    1        2.377   1.330  -0.014  0.00  0.00    +0.090 A 
ATOM     19  C   LIG    1        1.189   2.061   0.002  0.00  0.00    +0.030 A 
ATOM     20  C   LIG    1       -0.017   1.384   0.010  0.00  0.00    +0.004 A 
ATOM     21  C   LIG    1        0.002  -0.004   0.002  0.00  0.00    +0.020 A 
ATOM     22  C   LIG    1        1.215  -0.666  -0.013  0.00  0.00    +0.111 A 
ATOM     23  N   LIG    1        2.351   0.003  -0.021  0.00  0.00    -0.253 NA
ENDBRANCH  15  18
ENDBRANCH   2  13
TORSDOF 4
