REMARK  Name = ZINC06529560
REMARK                            x       y       z     vdW  Elec       q    Type
REMARK                         _______ _______ _______ _____ _____    ______ ____
ROOT
ATOM      1  C   LIG    1       -1.313  -0.658   0.009  0.00  0.00    +0.076 C 
ENDROOT
BRANCH   1   2
ATOM      2  C   LIG    1       -1.390  -1.886  -0.861  0.00  0.00    -0.050 A 
ATOM      3  C   LIG    1       -0.738  -1.912  -2.079  0.00  0.00    +0.002 A 
ATOM      4  C   LIG    1       -0.805  -3.039  -2.876  0.00  0.00    +0.000 A 
ATOM      5  C   LIG    1       -1.532  -4.138  -2.458  0.00  0.00    +0.000 A 
ATOM      6  C   LIG    1       -2.189  -4.111  -1.243  0.00  0.00    +0.000 A 
ATOM      7  C   LIG    1       -2.119  -2.984  -0.444  0.00  0.00    +0.002 A 
ENDBRANCH   1   2
BRANCH   1   8
ATOM      8  N   LIG    1        0.020  -0.044  -0.135  0.00  0.00    +0.394 N 
ATOM      9  H   LIG    1       -0.054   0.791  -0.727  0.00  0.00    -0.084 HD
ATOM     10  H   LIG    1        0.658  -0.719  -0.572  0.00  0.00    -0.084 HD
BRANCH   8  11
ATOM     11  C   LIG    1        0.551   0.342   1.186  0.00  0.00    -0.045 C 
BRANCH  11  15
ATOM     12  C   LIG    1        4.548   1.777   0.724  0.00  0.00    +0.000 A 
ATOM     13  C   LIG    1        3.484   2.656   0.641  0.00  0.00    +0.000 A 
ATOM     14  C   LIG    1        2.191   2.191   0.790  0.00  0.00    +0.002 A 
ATOM     15  C   LIG    1        1.961   0.848   1.023  0.00  0.00    -0.064 A 
ATOM     16  C   LIG    1        3.025  -0.030   1.112  0.00  0.00    +0.002 A 
ATOM     17  C   LIG    1        4.319   0.434   0.957  0.00  0.00    +0.000 A 
ENDBRANCH  11  15
ENDBRANCH   8  11
ENDBRANCH   1   8
BRANCH   1  18
ATOM     18  P   LIG    1       -2.589   0.536  -0.510  0.00  0.00    +0.318 P 
ATOM     19  O   LIG    1       -2.427   0.836  -1.950  0.00  0.00    -0.260 OA
BRANCH  18  20
ATOM     20  O   LIG    1       -2.432   1.893   0.342  0.00  0.00    -0.325 OA
ATOM     21  H   LIG    1       -1.552   2.272   0.187  0.00  0.00    +0.220 HD
ENDBRANCH  18  20
BRANCH  18  22
ATOM     22  O   LIG    1       -4.049  -0.092  -0.254  0.00  0.00    -0.325 OA
ATOM     23  H   LIG    1       -4.143  -0.910  -0.767  0.00  0.00    +0.220 HD
ENDBRANCH  18  22
ENDBRANCH   1  18
TORSDOF 7
