REMARK  Name = ZINC06096674
REMARK                            x       y       z     vdW  Elec       q    Type
REMARK                         _______ _______ _______ _____ _____    ______ ____
ROOT
ATOM      1  C   LIG    1        7.655   4.679  -0.387  0.00  0.00    -0.043 A 
ATOM      2  C   LIG    1        6.934   4.660  -1.567  0.00  0.00    +0.007 A 
ATOM      3  C   LIG    1        5.584   4.366  -1.548  0.00  0.00    +0.046 A 
ATOM      4  C   LIG    1        4.952   4.091  -0.345  0.00  0.00    +0.120 A 
ATOM      5  C   LIG    1        5.676   4.116   0.839  0.00  0.00    +0.046 A 
ATOM      6  C   LIG    1        7.027   4.404   0.814  0.00  0.00    +0.007 A 
ENDROOT
BRANCH   1   7
ATOM      7  C   LIG    1        9.127   5.000  -0.409  0.00  0.00    +0.070 C 
BRANCH   7  11
ATOM      8  C   LIG    1        9.674   9.214   0.022  0.00  0.00    +0.000 A 
ATOM      9  C   LIG    1        9.632   8.405   1.141  0.00  0.00    +0.000 A 
ATOM     10  C   LIG    1        9.454   7.041   1.002  0.00  0.00    +0.004 A 
ATOM     11  C   LIG    1        9.320   6.487  -0.257  0.00  0.00    -0.043 A 
ATOM     12  C   LIG    1        9.368   7.295  -1.377  0.00  0.00    +0.004 A 
ATOM     13  C   LIG    1        9.540   8.660  -1.238  0.00  0.00    +0.000 A 
ENDBRANCH   7  11
ENDBRANCH   1   7
BRANCH   4  14
ATOM     14  O   LIG    1        3.624   3.801  -0.324  0.00  0.00    -0.494 OA
BRANCH  14  15
ATOM     15  C   LIG    1        3.040   3.528   0.951  0.00  0.00    +0.210 C 
BRANCH  15  16
ATOM     16  C   LIG    1        1.550   3.226   0.775  0.00  0.00    -0.037 C 
BRANCH  16  17
ATOM     17  N   LIG    1        1.386   1.961  -0.003  0.00  0.00    +0.382 N 
ATOM     18  H   LIG    1        1.692   2.118  -0.970  0.00  0.00    -0.082 HD
ATOM     19  C   LIG    1        2.176   0.880   0.598  0.00  0.00    -0.079 C 
ATOM     20  C   LIG    1        1.500  -0.388   0.018  0.00  0.00    -0.020 C 
ATOM     21  C   LIG    1        0.002  -0.004   0.002  0.00  0.00    -0.020 C 
ATOM     22  C   LIG    1       -0.019   1.536   0.011  0.00  0.00    -0.079 C 
ENDBRANCH  16  17
ENDBRANCH  15  16
ENDBRANCH  14  15
ENDBRANCH   4  14
TORSDOF 6
