REMARK  Name = ZINC06718468
REMARK                            x       y       z     vdW  Elec       q    Type
REMARK                         _______ _______ _______ _____ _____    ______ ____
ROOT
ATOM      1  C   LIG    1        0.120  -1.759   5.074  0.00  0.00    +0.102 A 
ATOM      2  C   LIG    1       -0.014  -0.524   5.724  0.00  0.00    +0.045 A 
ATOM      3  C   LIG    1       -0.030  -0.497   7.131  0.00  0.00    +0.041 A 
ATOM      4  C   LIG    1        0.082  -1.648   7.829  0.00  0.00    +0.088 A 
ATOM      5  N   LIG    1        0.212  -2.845   7.199  0.00  0.00    -0.328 N 
ATOM      6  H   LIG    1        0.291  -3.655   7.728  0.00  0.00    +0.168 HD
ATOM      7  C   LIG    1        0.228  -2.930   5.856  0.00  0.00    +0.261 A 
ATOM      8  O   LIG    1        0.341  -4.018   5.314  0.00  0.00    -0.267 OA
ENDROOT
BRANCH   1  17
ATOM      9  C   LIG    1        0.186   0.940   0.232  0.00  0.00    +0.046 C 
ATOM     10  C   LIG    1        0.189  -0.566   0.276  0.00  0.00    -0.021 A 
ATOM     11  C   LIG    1        0.213  -1.283  -0.886  0.00  0.00    +0.028 A 
ATOM     12  C   LIG    1        0.215  -2.676  -0.860  0.00  0.00    +0.032 A 
ATOM     13  C   LIG    1        0.193  -3.352   0.350  0.00  0.00    +0.051 A 
ATOM     14  C   LIG    1        0.168  -2.635   1.537  0.00  0.00    +0.068 A 
ATOM     15  N   LIG    1        0.142  -2.994   2.872  0.00  0.00    -0.338 N 
ATOM     16  H   LIG    1        0.137  -3.898   3.226  0.00  0.00    +0.167 HD
ATOM     17  C   LIG    1        0.141  -1.834   3.604  0.00  0.00    +0.146 A 
ATOM     18  N   LIG    1        0.151  -0.800   2.794  0.00  0.00    -0.227 NA
ATOM     19  C   LIG    1        0.172  -1.230   1.507  0.00  0.00    +0.092 A 
BRANCH  12  20
ATOM     20  N   LIG    1        0.240  -3.395  -2.059  0.00  0.00    -0.325 N 
ATOM     21  C   LIG    1        0.365  -4.862  -2.061  0.00  0.00    +0.133 C 
ATOM     22  C   LIG    1       -0.740  -5.440  -2.951  0.00  0.00    +0.178 C 
ATOM     23  O   LIG    1       -0.701  -4.798  -4.227  0.00  0.00    -0.377 OA
ATOM     24  C   LIG    1       -0.954  -3.392  -4.183  0.00  0.00    +0.178 C 
ATOM     25  C   LIG    1        0.136  -2.709  -3.356  0.00  0.00    +0.133 C 
ENDBRANCH  12  20
ENDBRANCH   1  17
BRANCH   2  26
ATOM     26  N   LIG    1       -0.127   0.643   4.998  0.00  0.00    -0.340 N 
ATOM     27  H   LIG    1       -0.195   0.609   4.031  0.00  0.00    +0.146 HD
BRANCH  26  28
ATOM     28  C   LIG    1       -0.143   1.936   5.687  0.00  0.00    +0.137 C 
BRANCH  28  29
ATOM     29  C   LIG    1       -0.276   3.061   4.659  0.00  0.00    +0.161 C 
BRANCH  29  30
ATOM     30  C   LIG    1       -0.170   4.393   5.355  0.00  0.00    -0.016 A 
ATOM     31  C   LIG    1       -1.264   4.914   6.022  0.00  0.00    +0.006 A 
ATOM     32  C   LIG    1       -1.167   6.136   6.660  0.00  0.00    +0.002 A 
ATOM     33  C   LIG    1        0.023   6.838   6.632  0.00  0.00    +0.020 A 
ATOM     34  C   LIG    1        1.117   6.318   5.965  0.00  0.00    +0.041 A 
ATOM     35 CL   LIG    1        2.612   7.200   5.930  0.00  0.00    -0.084 Cl
ATOM     36  C   LIG    1        1.022   5.092   5.331  0.00  0.00    +0.026 A 
ENDBRANCH  29  30
BRANCH  29  37
ATOM     37  O   LIG    1       -1.544   2.963   4.007  0.00  0.00    -0.386 OA
ATOM     38  H   LIG    1       -2.300   3.034   4.606  0.00  0.00    +0.210 HD
ENDBRANCH  29  37
ENDBRANCH  28  29
ENDBRANCH  26  28
ENDBRANCH   2  26
TORSDOF 7
