REMARK  Name = ZINC06091591
REMARK                            x       y       z     vdW  Elec       q    Type
REMARK                         _______ _______ _______ _____ _____    ______ ____
ROOT
ATOM      1  C   LIG    1       -1.130   1.847   0.017  0.00  0.00    +0.031 A 
ATOM      2  C   LIG    1       -0.013   1.076   0.008  0.00  0.00    +0.084 A 
ATOM      3  N   LIG    1        1.077   1.872   0.002  0.00  0.00    -0.358 N 
ATOM      4  C   LIG    1        0.677   3.179   0.013  0.00  0.00    +0.097 A 
ATOM      5  C   LIG    1        1.409   4.453   0.013  0.00  0.00    +0.203 C 
ATOM      6  O   LIG    1        2.624   4.455   0.001  0.00  0.00    -0.286 OA
ATOM      7  C   LIG    1        0.667   5.730   0.028  0.00  0.00    +0.057 C 
ATOM      8  C   LIG    1       -0.672   5.744   0.041  0.00  0.00    +0.055 C 
ATOM      9  C   LIG    1       -1.434   4.479   0.041  0.00  0.00    +0.188 C 
ATOM     10  O   LIG    1       -2.649   4.498   0.053  0.00  0.00    -0.287 OA
ATOM     11  H   LIG    1        1.997   1.566  -0.008  0.00  0.00    +0.165 HD
ATOM     12  C   LIG    1       -0.713   3.190   0.026  0.00  0.00    +0.050 A 
ENDROOT
TORSDOF 0
