REMARK  Name = ZINC08396340
REMARK                            x       y       z     vdW  Elec       q    Type
REMARK                         _______ _______ _______ _____ _____    ______ ____
ROOT
ATOM      1  C   LIG    1       -8.070   1.528   4.495  0.00  0.00    +0.011 C 
ATOM      2  C   LIG    1       -9.321   2.406   4.427  0.00  0.00    -0.023 C 
ATOM      3  C   LIG    1      -10.464   1.738   5.195  0.00  0.00    +0.011 C 
ATOM      4  C   LIG    1       -9.022   3.776   5.039  0.00  0.00    +0.058 C 
ATOM      5  C   LIG    1       -7.934   4.458   4.248  0.00  0.00    +0.019 C 
ATOM      6  C   LIG    1       -7.787   4.231   2.926  0.00  0.00    +0.024 C 
ATOM      7  C   LIG    1       -8.636   3.342   2.244  0.00  0.00    +0.162 C 
ATOM      8  O   LIG    1       -8.482   3.166   1.051  0.00  0.00    -0.292 OA
ATOM      9  C   LIG    1       -6.702   4.928   2.147  0.00  0.00    +0.089 C 
ATOM     10  C   LIG    1       -6.209   6.150   2.877  0.00  0.00    +0.024 C 
ATOM     11  C   LIG    1       -6.417   6.289   4.202  0.00  0.00    +0.019 C 
ATOM     12  C   LIG    1       -5.912   7.498   4.947  0.00  0.00    +0.058 C 
ATOM     13  C   LIG    1       -5.907   8.711   4.014  0.00  0.00    -0.023 C 
ATOM     14  C   LIG    1       -5.347   9.927   4.753  0.00  0.00    +0.011 C 
ATOM     15  C   LIG    1       -7.334   9.003   3.544  0.00  0.00    +0.011 C 
ATOM     16  C   LIG    1       -5.023   8.391   2.804  0.00  0.00    +0.086 C 
ATOM     17  C   LIG    1       -5.531   7.140   2.141  0.00  0.00    +0.162 C 
ATOM     18  O   LIG    1       -5.354   6.982   0.950  0.00  0.00    -0.292 OA
ATOM     19  N   LIG    1       -7.095   5.323   4.895  0.00  0.00    -0.306 N 
ATOM     20  C   LIG    1       -9.731   2.604   2.964  0.00  0.00    +0.086 C 
ENDROOT
BRANCH   9  21
ATOM     21  C   LIG    1       -5.552   3.977   1.942  0.00  0.00    -0.034 A 
ATOM     22  C   LIG    1       -5.166   3.627   0.661  0.00  0.00    +0.008 A 
ATOM     23  C   LIG    1       -4.111   2.755   0.470  0.00  0.00    +0.047 A 
ATOM     24  C   LIG    1       -3.439   2.230   1.565  0.00  0.00    +0.135 A 
ATOM     25  C   LIG    1       -3.832   2.579   2.849  0.00  0.00    +0.060 A 
ATOM     26 BR   LIG    1       -2.923   1.862   4.345  0.00  0.00    -0.047 Br
ATOM     27  C   LIG    1       -4.884   3.457   3.035  0.00  0.00    +0.023 A 
BRANCH  24  28
ATOM     28  O   LIG    1       -2.402   1.372   1.379  0.00  0.00    -0.486 OA
BRANCH  28  29
ATOM     29  C   LIG    1       -2.058   1.052   0.030  0.00  0.00    +0.264 C 
BRANCH  29  30
ATOM     30  C   LIG    1       -0.894   0.094   0.022  0.00  0.00    -0.010 A 
ATOM     31  C   LIG    1        0.400   0.580  -0.012  0.00  0.00    +0.008 A 
ATOM     32  C   LIG    1        1.467  -0.299  -0.025  0.00  0.00    +0.020 A 
ATOM     33  C   LIG    1        1.240  -1.663  -0.005  0.00  0.00    +0.041 A 
ATOM     34 CL   LIG    1        2.580  -2.767  -0.021  0.00  0.00    -0.084 Cl
ATOM     35  C   LIG    1       -0.055  -2.148   0.029  0.00  0.00    +0.020 A 
ATOM     36  C   LIG    1       -1.122  -1.269   0.043  0.00  0.00    +0.008 A 
ENDBRANCH  29  30
ENDBRANCH  28  29
ENDBRANCH  24  28
ENDBRANCH   9  21
BRANCH  19  37
ATOM     37  C   LIG    1       -6.918   5.214   6.345  0.00  0.00    +0.121 C 
BRANCH  37  38
ATOM     38  C   LIG    1       -8.034   5.984   7.054  0.00  0.00    +0.139 C 
BRANCH  38  39
ATOM     39  C   LIG    1       -7.782   5.979   8.540  0.00  0.00    +0.306 C 
ATOM     40  O   LIG    1       -6.810   5.417   8.986  0.00  0.00    -0.251 OA
BRANCH  39  41
ATOM     41  O   LIG    1       -8.638   6.598   9.368  0.00  0.00    -0.481 OA
ATOM     42  H   LIG    1       -9.392   7.034   9.022  0.00  0.00    +0.295 HD
ENDBRANCH  39  41
ENDBRANCH  38  39
ENDBRANCH  37  38
ENDBRANCH  19  37
TORSDOF 8
