REMARK  Name = ZINC06244051
REMARK                            x       y       z     vdW  Elec       q    Type
REMARK                         _______ _______ _______ _____ _____    ______ ____
ROOT
ATOM      1  C   LIG    1       -4.380  -4.473   0.090  0.00  0.00    +0.037 A 
ATOM      2  C   LIG    1       -5.441  -3.564   0.149  0.00  0.00    +0.015 A 
ATOM      3  C   LIG    1       -6.739  -4.022   0.135  0.00  0.00    +0.025 A 
ATOM      4  C   LIG    1       -6.995  -5.389   0.063  0.00  0.00    +0.048 A 
ATOM      5  C   LIG    1       -5.941  -6.296   0.004  0.00  0.00    +0.025 A 
ATOM      6  C   LIG    1       -4.641  -5.844   0.012  0.00  0.00    +0.015 A 
ENDROOT
BRANCH   1   9
ATOM      7  N   LIG    1       -2.738  -2.663   0.180  0.00  0.00    -0.311 N 
ATOM      8  H   LIG    1       -3.473  -2.032   0.225  0.00  0.00    +0.149 HD
ATOM      9  C   LIG    1       -2.988  -3.985   0.104  0.00  0.00    +0.244 C 
ATOM     10  O   LIG    1       -2.066  -4.776   0.048  0.00  0.00    -0.270 OA
BRANCH   7  11
ATOM     11  C   LIG    1       -1.355  -2.178   0.194  0.00  0.00    +0.104 C 
BRANCH  11  12
ATOM     12  C   LIG    1       -1.351  -0.651   0.284  0.00  0.00    +0.018 C 
BRANCH  12  14
ATOM     13  C   LIG    1        0.098   1.382   0.389  0.00  0.00    +0.004 C 
ATOM     14  C   LIG    1        0.093  -0.145   0.299  0.00  0.00    -0.002 C 
ENDBRANCH  12  14
ENDBRANCH  11  12
ENDBRANCH   7  11
ENDBRANCH   1   9
BRANCH   4  15
ATOM     15  N   LIG    1       -8.307  -5.848   0.050  0.00  0.00    -0.216 N 
ATOM     16  H   LIG    1       -8.952  -5.494   0.682  0.00  0.00    +0.174 HD
BRANCH  15  17
ATOM     17  S   LIG    1       -8.770  -7.000  -1.047  0.00  0.00    +0.072 S 
ATOM     18  O   LIG    1      -10.170  -7.179  -0.881  0.00  0.00    -0.150 OA
ATOM     19  O   LIG    1       -7.845  -8.072  -0.924  0.00  0.00    -0.150 OA
BRANCH  17  20
ATOM     20  C   LIG    1       -8.536  -6.315  -2.653  0.00  0.00    +0.108 A 
ATOM     21  C   LIG    1       -9.518  -5.523  -3.216  0.00  0.00    +0.029 A 
ATOM     22  C   LIG    1       -9.334  -4.985  -4.476  0.00  0.00    +0.002 A 
ATOM     23  C   LIG    1       -8.168  -5.239  -5.173  0.00  0.00    +0.000 A 
ATOM     24  C   LIG    1       -7.185  -6.031  -4.609  0.00  0.00    +0.002 A 
ATOM     25  C   LIG    1       -7.367  -6.565  -3.347  0.00  0.00    +0.029 A 
ENDBRANCH  17  20
ENDBRANCH  15  17
ENDBRANCH   4  15
TORSDOF 7
