REMARK  Name = ZINC06928031
REMARK                            x       y       z     vdW  Elec       q    Type
REMARK                         _______ _______ _______ _____ _____    ______ ____
ROOT
ATOM      1  C   LIG    1        4.340   2.961   0.026  0.00  0.00    +0.000 A 
ATOM      2  C   LIG    1        3.374   3.843   0.477  0.00  0.00    +0.001 A 
ATOM      3  C   LIG    1        2.048   3.464   0.465  0.00  0.00    +0.015 A 
ATOM      4  C   LIG    1        1.681   2.204  -0.002  0.00  0.00    +0.016 A 
ATOM      5  C   LIG    1        2.642   1.324  -0.466  0.00  0.00    -0.028 A 
ATOM      6  C   LIG    1        2.329  -0.034  -1.001  0.00  0.00    +0.034 C 
ATOM      7  C   LIG    1        1.111  -0.696  -0.449  0.00  0.00    -0.028 A 
ATOM      8  C   LIG    1        1.093  -2.087  -0.416  0.00  0.00    +0.005 A 
ATOM      9  C   LIG    1       -0.016  -2.768   0.041  0.00  0.00    +0.000 A 
ATOM     10  C   LIG    1       -1.130  -2.072   0.475  0.00  0.00    +0.001 A 
ATOM     11  C   LIG    1       -1.120  -0.693   0.458  0.00  0.00    +0.015 A 
ATOM     12  C   LIG    1        0.002  -0.004   0.002  0.00  0.00    +0.016 A 
ATOM     13  S   LIG    1       -0.022   1.756   0.012  0.00  0.00    -0.089 S 
ATOM     14  C   LIG    1        3.978   1.715  -0.441  0.00  0.00    +0.005 A 
ENDROOT
BRANCH   6  15
ATOM     15  C   LIG    1        2.160   0.085  -2.517  0.00  0.00    -0.074 C 
BRANCH  15  16
ATOM     16  N   LIG    1        3.409   0.606  -3.100  0.00  0.00    +0.379 N 
ATOM     17  H   LIG    1        4.172  -0.053  -2.909  0.00  0.00    -0.090 HD
ATOM     18  H   LIG    1        3.638   1.508  -2.686  0.00  0.00    -0.090 HD
ATOM     19  H   LIG    1        3.307   0.713  -4.108  0.00  0.00    -0.090 HD
ENDBRANCH  15  16
ENDBRANCH   6  15
TORSDOF 2
