REMARK  Name = ZINC08221125
REMARK                            x       y       z     vdW  Elec       q    Type
REMARK                         _______ _______ _______ _____ _____    ______ ____
ROOT
ATOM      1  C   LIG    1        5.796   9.042  -0.005  0.00  0.00    +0.089 C 
ENDROOT
BRANCH   1   3
ATOM      2  C   LIG    1        8.323   9.827  -0.025  0.00  0.00    -0.102 C 
ATOM      3  C   LIG    1        7.202   9.479  -0.016  0.00  0.00    -0.102 C 
BRANCH   2   4
ATOM      4  C   LIG    1        9.729  10.263  -0.036  0.00  0.00    +0.089 C 
BRANCH   4   5
ATOM      5  C   LIG    1       10.418   9.732  -1.294  0.00  0.00    +0.013 C 
BRANCH   5   6
ATOM      6  C   LIG    1       11.879  10.186  -1.306  0.00  0.00    +0.001 C 
BRANCH   6   7
ATOM      7  C   LIG    1       12.568   9.655  -2.565  0.00  0.00    +0.000 C 
BRANCH   7   8
ATOM      8  C   LIG    1       14.029  10.109  -2.576  0.00  0.00    -0.000 C 
BRANCH   8   9
ATOM      9  C   LIG    1       14.718   9.578  -3.835  0.00  0.00    -0.000 C 
BRANCH   9  11
ATOM     10  C   LIG    1       16.868   9.501  -5.105  0.00  0.00    +0.004 C 
ATOM     11  C   LIG    1       16.179  10.032  -3.846  0.00  0.00    -0.003 C 
ENDBRANCH   9  11
ENDBRANCH   8   9
ENDBRANCH   7   8
ENDBRANCH   6   7
ENDBRANCH   5   6
ENDBRANCH   4   5
ENDBRANCH   2   4
ENDBRANCH   1   3
BRANCH   1  12
ATOM     12  C   LIG    1        5.737   7.513  -0.012  0.00  0.00    +0.013 C 
BRANCH  12  13
ATOM     13  C   LIG    1        4.276   7.059  -0.001  0.00  0.00    +0.001 C 
BRANCH  13  14
ATOM     14  C   LIG    1        4.217   5.531  -0.009  0.00  0.00    +0.000 C 
BRANCH  14  15
ATOM     15  C   LIG    1        2.755   5.077   0.003  0.00  0.00    +0.001 C 
BRANCH  15  16
ATOM     16  C   LIG    1        2.696   3.548  -0.005  0.00  0.00    +0.011 C 
BRANCH  16  17
ATOM     17  C   LIG    1        1.235   3.094   0.007  0.00  0.00    +0.120 C 
BRANCH  17  18
ATOM     18  C   LIG    1        1.177   1.588  -0.001  0.00  0.00    +0.305 C 
ATOM     19  O   LIG    1        2.199   0.944  -0.014  0.00  0.00    -0.251 OA
BRANCH  18  20
ATOM     20  O   LIG    1       -0.011   0.963   0.007  0.00  0.00    -0.481 OA
ATOM     21  H   LIG    1       -0.804   1.462   0.018  0.00  0.00    +0.295 HD
ENDBRANCH  18  20
ENDBRANCH  17  18
ENDBRANCH  16  17
ENDBRANCH  15  16
ENDBRANCH  14  15
ENDBRANCH  13  14
ENDBRANCH  12  13
ENDBRANCH   1  12
TORSDOF 16
