REMARK  Name = ZINC07736225
REMARK                            x       y       z     vdW  Elec       q    Type
REMARK                         _______ _______ _______ _____ _____    ______ ____
ROOT
ATOM      1  N   LIG    1       -1.998   2.455   5.953  0.00  0.00    +0.385 N 
ATOM      2  H   LIG    1       -1.985   1.429   5.939  0.00  0.00    -0.085 HD
ATOM      3  H   LIG    1       -1.035   2.810   5.938  0.00  0.00    -0.085 HD
ENDROOT
BRANCH   1   4
ATOM      4  C   LIG    1       -2.717   2.949   4.763  0.00  0.00    -0.046 C 
BRANCH   4   8
ATOM      5  C   LIG    1       -0.718   1.572   1.248  0.00  0.00    -0.064 A 
ATOM      6  C   LIG    1       -0.360   2.779   1.819  0.00  0.00    +0.002 A 
ATOM      7  C   LIG    1       -1.010   3.227   2.953  0.00  0.00    +0.002 A 
ATOM      8  C   LIG    1       -2.012   2.463   3.523  0.00  0.00    -0.064 A 
ATOM      9  C   LIG    1       -2.366   1.254   2.955  0.00  0.00    +0.002 A 
ATOM     10  C   LIG    1       -1.719   0.808   1.818  0.00  0.00    +0.002 A 
BRANCH   5  11
ATOM     11  C   LIG    1       -0.013   1.086   0.008  0.00  0.00    -0.044 C 
BRANCH  11  13
ATOM     12  C   LIG    1        0.059   1.323  -2.401  0.00  0.00    -0.096 C 
ATOM     13  N   LIG    1       -0.727   1.601  -1.179  0.00  0.00    +0.379 N 
ATOM     14  H   LIG    1       -0.845   2.616  -1.083  0.00  0.00    -0.082 HD
ATOM     15  C   LIG    1       -2.059   0.969  -1.281  0.00  0.00    -0.096 C 
ENDBRANCH  11  13
ENDBRANCH   5  11
ENDBRANCH   4   8
ENDBRANCH   1   4
BRANCH   1  16
ATOM     16  C   LIG    1       -2.668   2.917   7.183  0.00  0.00    -0.022 C 
BRANCH  16  17
ATOM     17  C   LIG    1       -1.913   2.399   8.380  0.00  0.00    +0.066 A 
ATOM     18  C   LIG    1       -0.925   3.068   9.108  0.00  0.00    +0.158 A 
ATOM     19  N   LIG    1       -0.553   2.239  10.056  0.00  0.00    -0.155 NA
ATOM     20  N   LIG    1       -1.233   1.153   9.946  0.00  0.00    -0.150 N 
ATOM     21  N   LIG    1       -2.053   1.226   8.958  0.00  0.00    -0.154 NA
BRANCH  20  22
ATOM     22  C   LIG    1       -1.102   0.042  10.791  0.00  0.00    +0.086 A 
ATOM     23  C   LIG    1       -1.890  -1.083  10.588  0.00  0.00    +0.029 A 
ATOM     24  C   LIG    1       -1.755  -2.179  11.418  0.00  0.00    +0.002 A 
ATOM     25  C   LIG    1       -0.844  -2.151  12.458  0.00  0.00    +0.000 A 
ATOM     26  C   LIG    1       -0.061  -1.030  12.666  0.00  0.00    +0.002 A 
ATOM     27  C   LIG    1       -0.188   0.066  11.835  0.00  0.00    +0.029 A 
ENDBRANCH  20  22
ENDBRANCH  16  17
ENDBRANCH   1  16
TORSDOF 7
