REMARK  Name = ZINC06718468
REMARK                            x       y       z     vdW  Elec       q    Type
REMARK                         _______ _______ _______ _____ _____    ______ ____
ROOT
ATOM      1  C   LIG    1        0.017  -1.668   4.410  0.00  0.00    +0.102 A 
ATOM      2  C   LIG    1        0.146  -2.982   4.883  0.00  0.00    +0.045 A 
ATOM      3  C   LIG    1        0.187  -3.200   6.273  0.00  0.00    +0.041 A 
ATOM      4  C   LIG    1        0.102  -2.154   7.123  0.00  0.00    +0.088 A 
ATOM      5  N   LIG    1       -0.023  -0.881   6.665  0.00  0.00    -0.328 N 
ATOM      6  H   LIG    1       -0.081  -0.150   7.301  0.00  0.00    +0.168 HD
ATOM      7  C   LIG    1       -0.061  -0.613   5.347  0.00  0.00    +0.261 A 
ATOM      8  O   LIG    1       -0.168   0.539   4.961  0.00  0.00    -0.267 OA
ENDROOT
BRANCH   1  16
ATOM      9  C   LIG    1       -0.096   2.045   0.186  0.00  0.00    +0.046 C 
ATOM     10  C   LIG    1       -0.116   0.557  -0.050  0.00  0.00    -0.023 A 
ATOM     11  C   LIG    1       -0.158   0.063  -1.337  0.00  0.00    +0.028 A 
ATOM     12  C   LIG    1       -0.177  -1.311  -1.565  0.00  0.00    +0.032 A 
ATOM     13  C   LIG    1       -0.153  -2.196  -0.503  0.00  0.00    +0.053 A 
ATOM     14  C   LIG    1       -0.110  -1.706   0.806  0.00  0.00    +0.091 A 
ATOM     15  N   LIG    1       -0.079  -2.306   2.022  0.00  0.00    -0.227 NA
ATOM     16  C   LIG    1       -0.029  -1.392   2.965  0.00  0.00    +0.146 A 
ATOM     17  N   LIG    1       -0.039  -0.144   2.400  0.00  0.00    -0.337 N 
ATOM     18  H   LIG    1       -0.016   0.703   2.873  0.00  0.00    +0.167 HD
ATOM     19  C   LIG    1       -0.086  -0.317   1.026  0.00  0.00    +0.070 A 
BRANCH  12  20
ATOM     20  N   LIG    1       -0.221  -1.798  -2.876  0.00  0.00    -0.325 N 
ATOM     21  C   LIG    1       -0.369  -0.885  -4.019  0.00  0.00    +0.133 C 
ATOM     22  C   LIG    1        0.722  -1.213  -5.045  0.00  0.00    +0.178 C 
ATOM     23  O   LIG    1        0.685  -2.611  -5.341  0.00  0.00    -0.377 OA
ATOM     24  C   LIG    1        0.960  -3.454  -4.219  0.00  0.00    +0.178 C 
ATOM     25  C   LIG    1       -0.113  -3.240  -3.152  0.00  0.00    +0.133 C 
ENDBRANCH  12  20
ENDBRANCH   1  16
BRANCH   2  26
ATOM     26  N   LIG    1        0.230  -4.040   4.003  0.00  0.00    -0.340 N 
ATOM     27  H   LIG    1        0.282  -3.874   3.049  0.00  0.00    +0.146 HD
BRANCH  26  28
ATOM     28  C   LIG    1        0.242  -5.414   4.509  0.00  0.00    +0.137 C 
BRANCH  28  29
ATOM     29  C   LIG    1        0.341  -6.389   3.334  0.00  0.00    +0.161 C 
BRANCH  29  30
ATOM     30  C   LIG    1        0.230  -7.803   3.844  0.00  0.00    -0.016 A 
ATOM     31  C   LIG    1        1.328  -8.422   4.413  0.00  0.00    +0.006 A 
ATOM     32  C   LIG    1        1.226  -9.718   4.880  0.00  0.00    +0.002 A 
ATOM     33  C   LIG    1        0.026 -10.398   4.780  0.00  0.00    +0.020 A 
ATOM     34  C   LIG    1       -1.073  -9.779   4.211  0.00  0.00    +0.041 A 
ATOM     35 CL   LIG    1       -2.580 -10.632   4.084  0.00  0.00    -0.084 Cl
ATOM     36  C   LIG    1       -0.972  -8.479   3.748  0.00  0.00    +0.026 A 
ENDBRANCH  29  30
BRANCH  29  37
ATOM     37  O   LIG    1        1.599  -6.218   2.678  0.00  0.00    -0.386 OA
ATOM     38  H   LIG    1        2.364  -6.377   3.247  0.00  0.00    +0.210 HD
ENDBRANCH  29  37
ENDBRANCH  28  29
ENDBRANCH  26  28
ENDBRANCH   2  26
TORSDOF 7
