REMARK  Name = ZINC06093764
REMARK                            x       y       z     vdW  Elec       q    Type
REMARK                         _______ _______ _______ _____ _____    ______ ____
ROOT
ATOM      1  C   LIG    1        3.436  -4.762  -0.639  0.00  0.00    +0.002 A 
ATOM      2  C   LIG    1        2.739  -3.796  -1.341  0.00  0.00    +0.005 A 
ATOM      3  C   LIG    1        2.085  -2.785  -0.663  0.00  0.00    -0.025 A 
ATOM      4  C   LIG    1        2.127  -2.740   0.720  0.00  0.00    -0.008 A 
ATOM      5  C   LIG    1        1.331  -1.540   1.179  0.00  0.00    +0.158 C 
ATOM      6  N   LIG    1        1.194  -0.671  -0.012  0.00  0.00    -0.170 NA
ATOM      7  C   LIG    1        2.824  -3.706   1.421  0.00  0.00    +0.046 A 
ATOM      8 CL   LIG    1        2.877  -3.651   3.156  0.00  0.00    -0.083 Cl
ATOM      9  C   LIG    1        1.260  -1.615  -1.151  0.00  0.00    +0.156 C 
ATOM     10  C   LIG    1        3.479  -4.718   0.741  0.00  0.00    +0.020 A 
ENDROOT
BRANCH   6  11
ATOM     11  N   LIG    1        0.002  -0.004   0.002  0.00  0.00    -0.165 N 
ATOM     12  H   LIG    1       -0.831  -0.500   0.007  0.00  0.00    +0.269 HD
BRANCH  11  13
ATOM     13  C   LIG    1       -0.017   1.371   0.010  0.00  0.00    +0.346 C 
ATOM     14  N   LIG    1        1.064   2.086   0.003  0.00  0.00    -0.278 N 
ATOM     15  H   LIG    1        2.019   1.711  -0.008  0.00  0.00    +0.258 HD
ATOM     16  C   LIG    1        0.715   3.516   0.014  0.00  0.00    +0.230 C 
ATOM     17  C   LIG    1       -0.826   3.528   0.028  0.00  0.00    +0.221 C 
ATOM     18  N   LIG    1       -1.175   2.097   0.019  0.00  0.00    -0.237 N 
ATOM     19  H   LIG    1       -2.074   1.732   0.021  0.00  0.00    +0.244 HD
ENDBRANCH  11  13
ENDBRANCH   6  11
TORSDOF 2
