REMARK  Name = ZINC08036042
REMARK                            x       y       z     vdW  Elec       q    Type
REMARK                         _______ _______ _______ _____ _____    ______ ____
ROOT
ATOM      1  C   LIG    1        2.356  -2.602  -4.483  0.00  0.00    +0.144 C 
ENDROOT
BRANCH   1   5
ATOM      2  C   LIG    1        1.762   0.075  -1.206  0.00  0.00    +0.120 A 
ATOM      3  C   LIG    1        1.048   0.248  -2.383  0.00  0.00    +0.046 A 
ATOM      4  C   LIG    1        1.242  -0.618  -3.441  0.00  0.00    +0.011 A 
ATOM      5  C   LIG    1        2.147  -1.657  -3.328  0.00  0.00    -0.007 A 
ATOM      6  C   LIG    1        2.860  -1.832  -2.156  0.00  0.00    +0.011 A 
ATOM      7  C   LIG    1        2.674  -0.964  -1.097  0.00  0.00    +0.046 A 
BRANCH   2   9
ATOM      8  C   LIG    1        0.618   1.974  -0.347  0.00  0.00    +0.277 C 
ATOM      9  O   LIG    1        1.573   0.927  -0.164  0.00  0.00    -0.495 OA
ENDBRANCH   2   9
ENDBRANCH   1   5
BRANCH   1  10
ATOM     10  C   LIG    1        1.022  -2.965  -5.083  0.00  0.00    -0.007 A 
ATOM     11  C   LIG    1       -0.108  -2.990  -4.288  0.00  0.00    +0.011 A 
ATOM     12  C   LIG    1       -1.332  -3.323  -4.835  0.00  0.00    +0.046 A 
ATOM     13  C   LIG    1       -1.427  -3.631  -6.185  0.00  0.00    +0.120 A 
ATOM     14  C   LIG    1       -0.291  -3.604  -6.981  0.00  0.00    +0.046 A 
ATOM     15  C   LIG    1        0.930  -3.266  -6.429  0.00  0.00    +0.011 A 
BRANCH  13  16
ATOM     16  O   LIG    1       -2.629  -3.958  -6.725  0.00  0.00    -0.495 OA
ATOM     17  C   LIG    1       -2.652  -4.264  -8.121  0.00  0.00    +0.277 C 
ENDBRANCH  13  16
ENDBRANCH   1  10
BRANCH   1  18
ATOM     18  C   LIG    1        3.043  -3.851  -3.994  0.00  0.00    -0.007 A 
ATOM     19  C   LIG    1        2.392  -4.698  -3.116  0.00  0.00    +0.011 A 
ATOM     20  C   LIG    1        3.019  -5.843  -2.666  0.00  0.00    +0.046 A 
ATOM     21  C   LIG    1        4.304  -6.143  -3.095  0.00  0.00    +0.120 A 
ATOM     22  C   LIG    1        4.955  -5.292  -3.975  0.00  0.00    +0.046 A 
ATOM     23  C   LIG    1        4.322  -4.150  -4.426  0.00  0.00    +0.011 A 
BRANCH  21  24
ATOM     24  O   LIG    1        4.924  -7.269  -2.652  0.00  0.00    -0.495 OA
ATOM     25  C   LIG    1        6.246  -7.514  -3.136  0.00  0.00    +0.277 C 
ENDBRANCH  21  24
ENDBRANCH   1  18
BRANCH   1  26
ATOM     26  O   LIG    1        3.168  -1.970  -5.475  0.00  0.00    -0.361 OA
BRANCH  26  27
ATOM     27  C   LIG    1        2.663  -0.710  -5.923  0.00  0.00    +0.143 C 
BRANCH  27  28
ATOM     28  C   LIG    1        3.556  -0.171  -7.042  0.00  0.00    -0.050 C 
BRANCH  28  29
ATOM     29  N   LIG    1        3.472  -1.061  -8.208  0.00  0.00    +0.382 N 
ATOM     30  H   LIG    1        3.703  -2.002  -7.928  0.00  0.00    -0.082 HD
ATOM     31  C   LIG    1        2.105  -1.034  -8.743  0.00  0.00    -0.079 C 
ATOM     32  C   LIG    1        1.991  -2.021  -9.908  0.00  0.00    -0.018 C 
ATOM     33  C   LIG    1        2.979  -1.621 -11.007  0.00  0.00    +0.011 C 
ATOM     34  C   LIG    1        4.393  -1.580 -10.418  0.00  0.00    +0.081 C 
ATOM     35  C   LIG    1        4.418  -0.610  -9.235  0.00  0.00    -0.064 C 
BRANCH  34  36
ATOM     36  C   LIG    1        5.364  -1.115 -11.473  0.00  0.00    +0.306 C 
ATOM     37  O   LIG    1        4.964  -0.841 -12.591  0.00  0.00    -0.251 OA
BRANCH  36  38
ATOM     38  O   LIG    1        6.549  -1.012 -11.207  0.00  0.00    -0.480 OA
ATOM     39  H   LIG    1        6.856  -1.222 -10.347  0.00  0.00    +0.295 HD
ENDBRANCH  36  38
ENDBRANCH  34  36
ENDBRANCH  28  29
ENDBRANCH  27  28
ENDBRANCH  26  27
ENDBRANCH   1  26
TORSDOF 12
