REMARK  Name = ZINC06092199
REMARK                            x       y       z     vdW  Elec       q    Type
REMARK                         _______ _______ _______ _____ _____    ______ ____
ROOT
ATOM      1  C   LIG    1        3.526   3.266  -0.013  0.00  0.00    +0.139 A 
ATOM      2  C   LIG    1        3.650   1.911  -0.021  0.00  0.00    +0.098 A 
ATOM      3  C   LIG    1        2.489   1.104  -0.015  0.00  0.00    +0.193 A 
ATOM      4  C   LIG    1        1.184   1.792   0.000  0.00  0.00    +0.064 A 
ATOM      5  C   LIG    1       -0.013   1.076   0.008  0.00  0.00    +0.019 A 
ATOM      6  C   LIG    1       -1.203   1.745   0.017  0.00  0.00    +0.046 A 
ATOM      7  C   LIG    1       -1.228   3.138   0.029  0.00  0.00    +0.120 A 
ATOM      8  C   LIG    1       -0.048   3.863   0.022  0.00  0.00    +0.092 A 
ATOM      9  C   LIG    1        1.169   3.197   0.008  0.00  0.00    +0.143 A 
ATOM     10  O   LIG    1        2.563  -0.114  -0.022  0.00  0.00    -0.287 OA
ATOM     11  O   LIG    1        2.333   3.881   0.001  0.00  0.00    -0.454 OA
ENDROOT
BRANCH   1  17
ATOM     12  C   LIG    1        6.005   3.479  -0.029  0.00  0.00    +0.015 A 
ATOM     13  C   LIG    1        7.147   4.252  -0.041  0.00  0.00    +0.050 A 
ATOM     14  C   LIG    1        7.052   5.636  -0.033  0.00  0.00    +0.158 A 
ATOM     15  C   LIG    1        5.801   6.253  -0.019  0.00  0.00    +0.159 A 
ATOM     16  C   LIG    1        4.653   5.485  -0.012  0.00  0.00    +0.060 A 
ATOM     17  C   LIG    1        4.748   4.090  -0.020  0.00  0.00    +0.021 A 
BRANCH  14  18
ATOM     18  O   LIG    1        8.180   6.393  -0.040  0.00  0.00    -0.503 OA
ATOM     19  H   LIG    1        8.107   7.490  -0.034  0.00  0.00    +0.292 HD
ENDBRANCH  14  18
BRANCH  15  20
ATOM     20  O   LIG    1        5.713   7.610  -0.011  0.00  0.00    -0.503 OA
ATOM     21  H   LIG    1        4.726   8.096   0.001  0.00  0.00    +0.292 HD
ENDBRANCH  15  20
ENDBRANCH   1  17
BRANCH   7  22
ATOM     22  O   LIG    1       -2.419   3.790   0.043  0.00  0.00    -0.507 OA
ATOM     23  H   LIG    1       -2.443   4.890   0.052  0.00  0.00    +0.292 HD
ENDBRANCH   7  22
TORSDOF 4
