REMARK  Name = ZINC08337100
REMARK                            x       y       z     vdW  Elec       q    Type
REMARK                         _______ _______ _______ _____ _____    ______ ____
ROOT
ATOM      1  C   LIG    1        0.608   4.875   1.581  0.00  0.00    -0.046 C 
ENDROOT
BRANCH   1   2
ATOM      2  C   LIG    1       -0.200   5.198   2.812  0.00  0.00    -0.064 A 
ATOM      3  C   LIG    1       -1.512   5.617   2.687  0.00  0.00    +0.004 A 
ATOM      4  C   LIG    1       -2.255   5.909   3.816  0.00  0.00    +0.033 A 
ATOM      5  C   LIG    1       -1.683   5.792   5.069  0.00  0.00    +0.122 A 
ATOM      6  C   LIG    1       -0.369   5.378   5.193  0.00  0.00    +0.033 A 
ATOM      7  C   LIG    1        0.372   5.082   4.065  0.00  0.00    +0.004 A 
BRANCH   5   8
ATOM      8  N   LIG    1       -2.476   6.109   6.277  0.00  0.00    +0.006 N 
ATOM      9  O   LIG    1       -1.973   6.006   7.381  0.00  0.00    -0.130 OA
BRANCH   8  10
ATOM     10  O   LIG    1       -3.634   6.474   6.167  0.00  0.00    -0.396 OA
ATOM     11  H   LIG    1       -4.021   6.553   5.318  0.00  0.00    +0.329 HD
ENDBRANCH   8  10
ENDBRANCH   5   8
ENDBRANCH   1   2
BRANCH   1  12
ATOM     12  N   LIG    1        0.444   3.445   1.257  0.00  0.00    +0.385 N 
ATOM     13  H1  LIG    1       -0.556   3.231   1.168  0.00  0.00    -0.085 HD
ATOM     14  H2  LIG    1        0.850   2.879   2.011  0.00  0.00    -0.085 HD
BRANCH  12  15
ATOM     15  CA  LIG    1        1.126   3.127  -0.011  0.00  0.00    -0.046 C 
BRANCH  15  17
ATOM     16  C   LIG    1        0.930   3.199  -2.501  0.00  0.00    +0.002 C 
ATOM     17  C   LIG    1        0.181   3.405  -1.182  0.00  0.00    -0.017 C 
ENDBRANCH  15  17
BRANCH  15  18
ATOM     18  C   LIG    1        1.519   1.648  -0.013  0.00  0.00    +0.140 C 
BRANCH  18  19
ATOM     19  O   LIG    1        0.339   0.842   0.003  0.00  0.00    -0.397 OA
ATOM     20  H   LIG    1        0.512  -0.110   0.003  0.00  0.00    +0.209 HD
ENDBRANCH  18  19
ENDBRANCH  15  18
ENDBRANCH  12  15
ENDBRANCH   1  12
TORSDOF 8
