REMARK  Name = ZINC05939954
REMARK                            x       y       z     vdW  Elec       q    Type
REMARK                         _______ _______ _______ _____ _____    ______ ____
ROOT
ATOM      1  C   LIG    1       -1.226   1.747   0.017  0.00  0.00    +0.001 A 
ATOM      2  C   LIG    1       -0.013   1.076   0.008  0.00  0.00    +0.002 A 
ATOM      3  C   LIG    1        1.175   1.775   0.000  0.00  0.00    +0.026 A 
ATOM      4  C   LIG    1        1.164   3.167   0.008  0.00  0.00    +0.050 A 
ATOM      5  C   LIG    1       -0.064   3.844   0.023  0.00  0.00    +0.008 A 
ATOM      6  C   LIG    1        0.251   5.284   0.028  0.00  0.00    +0.008 A 
ATOM      7  C   LIG    1       -0.531   6.436   0.041  0.00  0.00    +0.010 A 
ATOM      8  C   LIG    1        0.074   7.674   0.041  0.00  0.00    +0.001 A 
ATOM      9  C   LIG    1        1.457   7.776   0.028  0.00  0.00    +0.002 A 
ATOM     10  C   LIG    1        2.243   6.644   0.016  0.00  0.00    +0.026 A 
ATOM     11  C   LIG    1        1.650   5.384   0.014  0.00  0.00    +0.050 A 
ATOM     12  N   LIG    1        2.179   4.106   0.003  0.00  0.00    -0.340 N 
ATOM     13  C   LIG    1       -1.257   3.124   0.031  0.00  0.00    +0.010 A 
ENDROOT
BRANCH  12  14
ATOM     14  C   LIG    1        3.611   3.793  -0.012  0.00  0.00    +0.123 C 
BRANCH  14  15
ATOM     15  C   LIG    1        4.095   3.690  -1.460  0.00  0.00    +0.033 C 
BRANCH  15  16
ATOM     16  C   LIG    1        5.589   3.363  -1.476  0.00  0.00    +0.122 C 
BRANCH  16  17
ATOM     17  C   LIG    1        6.067   3.262  -2.901  0.00  0.00    +0.305 C 
ATOM     18  O   LIG    1        5.291   3.434  -3.812  0.00  0.00    -0.251 OA
BRANCH  17  19
ATOM     19  O   LIG    1        7.353   2.980  -3.160  0.00  0.00    -0.481 OA
ATOM     20  H   LIG    1        7.955   2.847  -2.454  0.00  0.00    +0.295 HD
ENDBRANCH  17  19
ENDBRANCH  16  17
ENDBRANCH  15  16
ENDBRANCH  14  15
ENDBRANCH  12  14
TORSDOF 5
