REMARK  Name = ZINC05966783
REMARK                            x       y       z     vdW  Elec       q    Type
REMARK                         _______ _______ _______ _____ _____    ______ ____
ROOT
ATOM      1  C   LIG    1       -1.642   0.999   2.817  0.00  0.00    -0.096 C 
ATOM      2  N   LIG    1       -1.790  -0.141   1.876  0.00  0.00    +0.379 N 
ATOM      3  H   LIG    1       -2.147  -0.928   2.431  0.00  0.00    -0.082 HD
ATOM      4  C   LIG    1       -0.496  -0.589   1.313  0.00  0.00    -0.066 C 
ATOM      5  C   LIG    1        0.002  -0.004   0.002  0.00  0.00    +0.033 C 
ATOM      6  C   LIG    1       -0.706  -0.523  -1.218  0.00  0.00    -0.034 A 
ATOM      7  C   LIG    1        0.023  -0.468  -2.407  0.00  0.00    +0.053 A 
ATOM      8  C   LIG    1       -0.518  -0.909  -3.598  0.00  0.00    +0.160 A 
ATOM      9  C   LIG    1       -1.811  -1.419  -3.612  0.00  0.00    +0.177 A 
ATOM     10  C   LIG    1       -2.530  -1.483  -2.433  0.00  0.00    +0.089 A 
ATOM     11 CL   LIG    1       -4.139  -2.136  -2.451  0.00  0.00    -0.079 Cl
ATOM     12  C   LIG    1       -1.981  -1.032  -1.234  0.00  0.00    -0.023 A 
ATOM     13  C   LIG    1       -2.860  -1.148  -0.014  0.00  0.00    +0.018 C 
ATOM     14  C   LIG    1       -2.813   0.128   0.831  0.00  0.00    -0.074 C 
ENDROOT
BRANCH   5  15
ATOM     15  C   LIG    1       -0.018   1.499   0.010  0.00  0.00    -0.042 A 
ATOM     16  C   LIG    1       -1.024   2.181  -0.650  0.00  0.00    +0.004 A 
ATOM     17  C   LIG    1       -1.045   3.563  -0.639  0.00  0.00    +0.000 A 
ATOM     18  C   LIG    1       -0.055   4.264   0.025  0.00  0.00    +0.000 A 
ATOM     19  C   LIG    1        0.953   3.583   0.681  0.00  0.00    +0.000 A 
ATOM     20  C   LIG    1        0.971   2.200   0.674  0.00  0.00    +0.004 A 
ENDBRANCH   5  15
BRANCH   8  21
ATOM     21  O   LIG    1        0.206  -0.846  -4.748  0.00  0.00    -0.503 OA
ATOM     22  H   LIG    1        0.097  -0.018  -5.236  0.00  0.00    +0.292 HD
ENDBRANCH   8  21
BRANCH   9  23
ATOM     23  O   LIG    1       -2.363  -1.855  -4.777  0.00  0.00    -0.502 OA
ATOM     24  H   LIG    1       -2.842  -1.171  -5.264  0.00  0.00    +0.292 HD
ENDBRANCH   9  23
TORSDOF 3
