REMARK  Name = ZINC06527954
REMARK                            x       y       z     vdW  Elec       q    Type
REMARK                         _______ _______ _______ _____ _____    ______ ____
ROOT
ATOM      1  N   LIG    1        4.326   2.557   1.556  0.00  0.00    -0.108 N 
ATOM      2  H   LIG    1        4.425   3.459   1.900  0.00  0.00    +0.211 HD
ENDROOT
BRANCH   1   3
ATOM      3  S   LIG    1        3.891   2.315  -0.023  0.00  0.00    +0.095 S 
ATOM      4  O   LIG    1        3.597   3.595  -0.564  0.00  0.00    -0.148 OA
ATOM      5  O   LIG    1        4.872   1.456  -0.588  0.00  0.00    -0.148 OA
BRANCH   3   8
ATOM      6  C   LIG    1       -0.017   1.380   0.010  0.00  0.00    +0.040 A 
ATOM      7  C   LIG    1        1.171   2.087   0.002  0.00  0.00    +0.032 A 
ATOM      8  C   LIG    1        2.377   1.412  -0.013  0.00  0.00    +0.111 A 
ATOM      9  C   LIG    1        2.397   0.030  -0.021  0.00  0.00    +0.032 A 
ATOM     10  C   LIG    1        1.211  -0.679  -0.014  0.00  0.00    +0.040 A 
ATOM     11  C   LIG    1        0.002  -0.004   0.002  0.00  0.00    +0.124 A 
ATOM     12  F   LIG    1       -1.158  -0.696   0.009  0.00  0.00    -0.205 F 
ENDBRANCH   3   8
ENDBRANCH   1   3
BRANCH   1  13
ATOM     13  N   LIG    1        4.553   1.459   2.397  0.00  0.00    -0.173 N 
ATOM     14  H   LIG    1        4.454   0.557   2.054  0.00  0.00    +0.289 HD
ATOM     15  C   LIG    1        4.894   1.649   3.636  0.00  0.00    +0.362 C 
BRANCH  15  16
ATOM     16  N   LIG    1        5.119   0.561   4.469  0.00  0.00    -0.290 N 
ATOM     17  H   LIG    1        5.374   0.703   5.394  0.00  0.00    +0.255 HD
ATOM     18  H   LIG    1        5.020  -0.341   4.125  0.00  0.00    +0.255 HD
ENDBRANCH  15  16
BRANCH  15  19
ATOM     19  N   LIG    1        5.035   2.940   4.127  0.00  0.00    -0.290 N 
ATOM     20  H   LIG    1        5.290   3.082   5.052  0.00  0.00    +0.255 HD
ATOM     21  H   LIG    1        4.879   3.700   3.545  0.00  0.00    +0.255 HD
ENDBRANCH  15  19
ENDBRANCH   1  13
TORSDOF 5
