REMARK  Name = ZINC08387390
REMARK                            x       y       z     vdW  Elec       q    Type
REMARK                         _______ _______ _______ _____ _____    ______ ____
ROOT
ATOM      1  C   LIG    1        3.711  -7.425   3.844  0.00  0.00    +0.403 C 
ATOM      2  N   LIG    1        2.832  -6.864   2.990  0.00  0.00    -0.262 N 
ATOM      3  C   LIG    1        2.134  -5.614   3.324  0.00  0.00    +0.116 C 
ATOM      4  C   LIG    1        2.558  -4.514   2.348  0.00  0.00    +0.056 C 
ATOM      5  C   LIG    1        2.478  -5.050   0.924  0.00  0.00    -0.020 A 
ATOM      6  C   LIG    1        2.474  -6.377   0.673  0.00  0.00    +0.013 A 
ATOM      7  S   LIG    1        2.383  -6.507  -1.089  0.00  0.00    -0.076 S 
ATOM      8  C   LIG    1        2.341  -4.822  -1.492  0.00  0.00    +0.084 A 
ATOM      9  C   LIG    1        2.407  -4.200  -0.253  0.00  0.00    +0.069 A 
ATOM     10  C   LIG    1        2.532  -7.483   1.683  0.00  0.00    +0.153 C 
ATOM     11  O   LIG    1        3.940  -6.896   4.913  0.00  0.00    -0.226 OA
ENDROOT
BRANCH   8  12
ATOM     12  N   LIG    1        2.264  -4.238  -2.747  0.00  0.00    -0.279 N 
ATOM     13  H   LIG    1        2.250  -3.271  -2.831  0.00  0.00    +0.155 HD
ATOM     14  C   LIG    1        2.207  -5.012  -3.848  0.00  0.00    +0.222 C 
ATOM     15  O   LIG    1        2.224  -6.220  -3.742  0.00  0.00    -0.275 OA
BRANCH  14  16
ATOM     16  C   LIG    1        2.123  -4.376  -5.212  0.00  0.00    +0.131 C 
BRANCH  16  17
ATOM     17  C   LIG    1        2.072  -5.453  -6.266  0.00  0.00    -0.038 A 
ATOM     18  C   LIG    1        3.244  -5.931  -6.821  0.00  0.00    +0.007 A 
ATOM     19  C   LIG    1        3.200  -6.922  -7.783  0.00  0.00    +0.046 A 
ATOM     20  C   LIG    1        1.978  -7.429  -8.199  0.00  0.00    +0.120 A 
ATOM     21  C   LIG    1        0.803  -6.943  -7.644  0.00  0.00    +0.046 A 
ATOM     22  C   LIG    1        0.852  -5.957  -6.679  0.00  0.00    +0.007 A 
BRANCH  20  23
ATOM     23  O   LIG    1        1.932  -8.400  -9.149  0.00  0.00    -0.495 OA
ATOM     24  C   LIG    1        3.181  -8.852  -9.676  0.00  0.00    +0.277 C 
ENDBRANCH  20  23
ENDBRANCH  16  17
ENDBRANCH  14  16
ENDBRANCH   8  12
BRANCH   9  25
ATOM     25  C   LIG    1        2.400  -2.739  -0.136  0.00  0.00    +0.251 C 
ATOM     26  N   LIG    1        1.231  -2.078  -0.019  0.00  0.00    -0.281 N 
ATOM     27  H   LIG    1        0.400  -2.572   0.053  0.00  0.00    +0.155 HD
ATOM     28  O   LIG    1        3.449  -2.122  -0.143  0.00  0.00    -0.270 OA
BRANCH  26  29
ATOM     29  C   LIG    1        1.217  -0.685  -0.004  0.00  0.00    +0.034 A 
ATOM     30  C   LIG    1        0.163   0.005  -0.596  0.00  0.00    +0.024 A 
ATOM     31  C   LIG    1        0.145   1.381  -0.582  0.00  0.00    +0.017 A 
ATOM     32  C   LIG    1        1.188   2.086   0.029  0.00  0.00    +0.059 A 
ATOM     33  C   LIG    1        2.244   1.389   0.622  0.00  0.00    +0.017 A 
ATOM     34  C   LIG    1        2.256   0.013   0.604  0.00  0.00    +0.024 A 
BRANCH  32  35
ATOM     35  C   LIG    1        1.172   3.560   0.045  0.00  0.00    +0.339 C 
ATOM     36  O   LIG    1        0.253   4.164  -0.471  0.00  0.00    -0.245 OA
BRANCH  35  37
ATOM     37  O   LIG    1        2.177   4.237   0.634  0.00  0.00    -0.464 OA
ATOM     38  C   LIG    1        2.096   5.687   0.613  0.00  0.00    +0.280 C 
ENDBRANCH  35  37
ENDBRANCH  32  35
ENDBRANCH  26  29
ENDBRANCH   9  25
BRANCH   1  39
ATOM     39  O   LIG    1        4.335  -8.570   3.511  0.00  0.00    -0.451 OA
BRANCH  39  41
ATOM     40  C   LIG    1        5.875 -10.410   3.930  0.00  0.00    +0.048 C 
ATOM     41  C   LIG    1        5.269  -9.117   4.480  0.00  0.00    +0.230 C 
ENDBRANCH  39  41
ENDBRANCH   1  39
TORSDOF 10
