REMARK  Name = ZINC06920405
REMARK                            x       y       z     vdW  Elec       q    Type
REMARK                         _______ _______ _______ _____ _____    ______ ____
ROOT
ATOM      1  C   LIG    1        4.740  -2.701  -1.649  0.00  0.00    +0.178 C 
ATOM      2  C   LIG    1        6.158  -2.603  -2.219  0.00  0.00    +0.177 C 
ATOM      3  C   LIG    1        6.132  -2.990  -3.701  0.00  0.00    +0.179 C 
ATOM      4  C   LIG    1        5.144  -2.080  -4.438  0.00  0.00    +0.201 C 
ATOM      5  C   LIG    1        3.766  -2.199  -3.782  0.00  0.00    +0.285 C 
ATOM      6  O   LIG    1        3.867  -1.855  -2.398  0.00  0.00    -0.340 OA
ENDROOT
BRANCH   4   7
ATOM      7  O   LIG    1        5.058  -2.479  -5.807  0.00  0.00    -0.384 OA
ATOM      8  H   LIG    1        4.449  -1.944  -6.335  0.00  0.00    +0.210 HD
ENDBRANCH   4   7
BRANCH   3   9
ATOM      9  O   LIG    1        7.438  -2.833  -4.259  0.00  0.00    -0.386 OA
ATOM     10  H   LIG    1        7.494  -3.061  -5.197  0.00  0.00    +0.210 HD
ENDBRANCH   3   9
BRANCH   2  11
ATOM     11  O   LIG    1        7.022  -3.491  -1.507  0.00  0.00    -0.386 OA
ATOM     12  H   LIG    1        7.938  -3.481  -1.817  0.00  0.00    +0.210 HD
ENDBRANCH   2  11
BRANCH   1  13
ATOM     13  C   LIG    1        4.748  -2.258  -0.184  0.00  0.00    +0.197 C 
BRANCH  13  14
ATOM     14  O   LIG    1        3.441  -2.421   0.369  0.00  0.00    -0.346 OA
BRANCH  14  19
ATOM     15  C   LIG    1        2.707   0.088   1.400  0.00  0.00    +0.178 C 
ATOM     16  C   LIG    1        1.287  -0.194   1.897  0.00  0.00    +0.177 C 
ATOM     17  C   LIG    1        0.938  -1.659   1.617  0.00  0.00    +0.179 C 
ATOM     18  C   LIG    1        1.979  -2.559   2.290  0.00  0.00    +0.201 C 
ATOM     19  C   LIG    1        3.372  -2.186   1.777  0.00  0.00    +0.282 C 
ATOM     20  O   LIG    1        3.622  -0.803   2.042  0.00  0.00    -0.341 OA
BRANCH  18  21
ATOM     21  O   LIG    1        1.703  -3.925   1.976  0.00  0.00    -0.384 OA
ATOM     22  H   LIG    1        2.325  -4.552   2.370  0.00  0.00    +0.210 HD
ENDBRANCH  18  21
BRANCH  17  23
ATOM     23  O   LIG    1       -0.359  -1.950   2.142  0.00  0.00    -0.386 OA
ATOM     24  H   LIG    1       -0.645  -2.862   2.000  0.00  0.00    +0.210 HD
ENDBRANCH  17  23
BRANCH  16  25
ATOM     25  O   LIG    1        1.216   0.055   3.303  0.00  0.00    -0.386 OA
ATOM     26  H   LIG    1        0.342  -0.104   3.686  0.00  0.00    +0.210 HD
ENDBRANCH  16  25
BRANCH  15  27
ATOM     27  C   LIG    1        3.086   1.533   1.730  0.00  0.00    +0.190 C 
BRANCH  27  28
ATOM     28  O   LIG    1        4.364   1.831   1.165  0.00  0.00    -0.392 OA
ATOM     29  H   LIG    1        4.669   2.733   1.335  0.00  0.00    +0.210 HD
ENDBRANCH  27  28
ENDBRANCH  15  27
ENDBRANCH  14  19
ENDBRANCH  13  14
ENDBRANCH   1  13
BRANCH   5  30
ATOM     30  O   LIG    1        3.293  -3.542  -3.905  0.00  0.00    -0.313 OA
BRANCH  30  31
ATOM     31  C   LIG    1        1.933  -3.642  -4.330  0.00  0.00    +0.225 C 
ATOM     32  C   LIG    1        1.452  -5.104  -4.208  0.00  0.00    +0.207 C 
ATOM     33  C   LIG    1        0.697  -5.090  -2.851  0.00  0.00    +0.179 C 
ATOM     34  C   LIG    1        0.098  -3.661  -2.862  0.00  0.00    +0.178 C 
ATOM     35  O   LIG    1        1.099  -2.840  -3.485  0.00  0.00    -0.336 OA
BRANCH  33  36
ATOM     36  O   LIG    1       -0.333  -6.081  -2.825  0.00  0.00    -0.386 OA
ATOM     37  H   LIG    1       -0.831  -6.108  -1.996  0.00  0.00    +0.210 HD
ENDBRANCH  33  36
BRANCH  32  38
ATOM     38  O   LIG    1        2.562  -6.003  -4.168  0.00  0.00    -0.384 OA
ATOM     39  H   LIG    1        2.312  -6.934  -4.091  0.00  0.00    +0.210 HD
ENDBRANCH  32  38
BRANCH  31  40
ATOM     40  C   LIG    1        1.806  -3.172  -5.781  0.00  0.00    +0.223 C 
BRANCH  40  41
ATOM     41  O   LIG    1        2.089  -1.773  -5.855  0.00  0.00    -0.390 OA
ATOM     42  H   LIG    1        2.028  -1.406  -6.747  0.00  0.00    +0.210 HD
ENDBRANCH  40  41
ENDBRANCH  31  40
BRANCH  34  43
ATOM     43  C   LIG    1       -0.166  -3.185  -1.432  0.00  0.00    +0.190 C 
BRANCH  43  44
ATOM     44  O   LIG    1       -0.843  -1.927  -1.466  0.00  0.00    -0.392 OA
ATOM     45  H   LIG    1       -1.002  -1.542  -0.594  0.00  0.00    +0.210 HD
ENDBRANCH  43  44
ENDBRANCH  34  43
ENDBRANCH  30  31
ENDBRANCH   5  30
TORSDOF 19
