REMARK  Name = ZINC06018406
REMARK                            x       y       z     vdW  Elec       q    Type
REMARK                         _______ _______ _______ _____ _____    ______ ____
ROOT
ATOM      1  C   LIG    1        2.587  -2.550   4.310  0.00  0.00    +0.128 C 
ATOM      2  C   LIG    1        1.944  -2.117   5.636  0.00  0.00    +0.245 C 
ATOM      3  O   LIG    1        2.082  -0.704   5.788  0.00  0.00    -0.490 OA
ATOM      4  C   LIG    1        3.314  -0.154   5.667  0.00  0.00    +0.135 A 
ATOM      5  C   LIG    1        3.580   1.079   6.241  0.00  0.00    +0.095 A 
ATOM      6  C   LIG    1        4.834   1.652   6.109  0.00  0.00    +0.162 A 
ATOM      7  C   LIG    1        5.843   0.997   5.398  0.00  0.00    +0.159 A 
ATOM      8  C   LIG    1        5.595  -0.232   4.824  0.00  0.00    +0.064 A 
ATOM      9  C   LIG    1        4.330  -0.816   4.957  0.00  0.00    +0.063 A 
ATOM     10  C   LIG    1        4.045  -2.129   4.360  0.00  0.00    +0.177 C 
ATOM     11  O   LIG    1        4.929  -2.840   3.929  0.00  0.00    -0.291 OA
ENDROOT
BRANCH   1  15
ATOM     12  C   LIG    1        0.626  -0.618   1.042  0.00  0.00    +0.120 A 
ATOM     13  C   LIG    1        1.212   0.139   2.045  0.00  0.00    +0.046 A 
ATOM     14  C   LIG    1        1.841  -0.488   3.104  0.00  0.00    +0.008 A 
ATOM     15  C   LIG    1        1.895  -1.869   3.158  0.00  0.00    -0.033 A 
ATOM     16  C   LIG    1        1.317  -2.626   2.155  0.00  0.00    +0.008 A 
ATOM     17  C   LIG    1        0.682  -2.003   1.098  0.00  0.00    +0.046 A 
BRANCH  12  19
ATOM     18  C   LIG    1       -0.017   1.425   0.010  0.00  0.00    +0.277 C 
ATOM     19  O   LIG    1        0.002  -0.004   0.002  0.00  0.00    -0.495 OA
ENDBRANCH  12  19
ENDBRANCH   1  15
BRANCH   6  20
ATOM     20  O   LIG    1        5.085   2.860   6.675  0.00  0.00    -0.503 OA
ATOM     21  H   LIG    1        4.897   3.612   6.096  0.00  0.00    +0.292 HD
ENDBRANCH   6  20
BRANCH   7  22
ATOM     22  O   LIG    1        7.069   1.571   5.273  0.00  0.00    -0.503 OA
ATOM     23  H   LIG    1        7.161   2.137   4.494  0.00  0.00    +0.292 HD
ENDBRANCH   7  22
TORSDOF 4
