REMARK  Name = ZINC06053055
REMARK                            x       y       z     vdW  Elec       q    Type
REMARK                         _______ _______ _______ _____ _____    ______ ____
ROOT
ATOM      1  C   LIG    1        1.554  -4.571  -1.197  0.00  0.00    +0.062 C 
ATOM      2  C   LIG    1        2.470  -4.159  -0.042  0.00  0.00    +0.256 C 
ENDROOT
BRANCH   2   3
ATOM      3  C   LIG    1        2.555  -2.656   0.019  0.00  0.00    +0.258 C 
ATOM      4  N   LIG    1        1.458  -1.930   0.311  0.00  0.00    -0.282 N 
ATOM      5  H   LIG    1        0.632  -2.376   0.556  0.00  0.00    +0.155 HD
ATOM      6  O   LIG    1        3.612  -2.099  -0.194  0.00  0.00    -0.271 OA
BRANCH   4   7
ATOM      7  C   LIG    1        1.510  -0.532   0.261  0.00  0.00    +0.034 A 
ATOM      8  C   LIG    1        2.326   0.101  -0.668  0.00  0.00    +0.025 A 
ATOM      9  C   LIG    1        2.376   1.480  -0.715  0.00  0.00    +0.022 A 
ATOM     10  C   LIG    1        1.613   2.232   0.161  0.00  0.00    +0.041 A 
ATOM     11 CL   LIG    1        1.677   3.966   0.099  0.00  0.00    -0.084 Cl
ATOM     12  C   LIG    1        0.799   1.604   1.087  0.00  0.00    +0.022 A 
ATOM     13  C   LIG    1        0.746   0.225   1.139  0.00  0.00    +0.025 A 
ENDBRANCH   4   7
ENDBRANCH   2   3
BRANCH   2  14
ATOM     14  O   LIG    1        3.775  -4.703  -0.251  0.00  0.00    -0.479 OA
BRANCH  14  15
ATOM     15  C   LIG    1        3.985  -5.978   0.166  0.00  0.00    +0.129 A 
ATOM     16  C   LIG    1        2.948  -6.723   0.651  0.00  0.00    +0.046 A 
ATOM     17  C   LIG    1        3.148  -8.032   1.083  0.00  0.00    +0.004 A 
ATOM     18  C   LIG    1        4.381  -8.607   1.034  0.00  0.00    +0.009 A 
ATOM     19  C   LIG    1        5.474  -7.873   0.541  0.00  0.00    -0.014 A 
ATOM     20  C   LIG    1        6.761  -8.436   0.477  0.00  0.00    +0.008 A 
ATOM     21  C   LIG    1        7.796  -7.696  -0.006  0.00  0.00    +0.001 A 
ATOM     22  C   LIG    1        7.600  -6.386  -0.440  0.00  0.00    +0.001 A 
ATOM     23  C   LIG    1        6.368  -5.809  -0.391  0.00  0.00    +0.012 A 
ATOM     24  C   LIG    1        5.275  -6.543   0.096  0.00  0.00    +0.024 A 
ENDBRANCH  14  15
ENDBRANCH   2  14
TORSDOF 4
