REMARK  Name = ZINC06227952
REMARK                            x       y       z     vdW  Elec       q    Type
REMARK                         _______ _______ _______ _____ _____    ______ ____
ROOT
ATOM      1  C   LIG    1        3.607   1.849  -0.023  0.00  0.00    +0.103 A 
ATOM      2  C   LIG    1        2.430   1.109  -0.016  0.00  0.00    +0.030 A 
ATOM      3  C   LIG    1        1.195   1.796   0.000  0.00  0.00    +0.019 A 
ATOM      4  C   LIG    1       -0.013   1.076   0.008  0.00  0.00    +0.015 A 
ATOM      5  C   LIG    1       -1.201   1.741   0.017  0.00  0.00    +0.046 A 
ATOM      6  C   LIG    1       -1.229   3.136   0.031  0.00  0.00    +0.120 A 
ATOM      7  C   LIG    1       -0.050   3.864   0.023  0.00  0.00    +0.092 A 
ATOM      8  C   LIG    1        1.171   3.204   0.008  0.00  0.00    +0.143 A 
ATOM      9  O   LIG    1        2.318   3.918   0.001  0.00  0.00    -0.422 OA
ATOM     10  C   LIG    1        3.518   3.315  -0.015  0.00  0.00    +0.348 A 
ATOM     11  O   LIG    1        4.534   3.985  -0.021  0.00  0.00    -0.244 OA
ENDROOT
BRANCH   1  12
ATOM     12  C   LIG    1        4.908   1.181  -0.040  0.00  0.00    +0.181 C 
ATOM     13  O   LIG    1        5.928   1.839  -0.046  0.00  0.00    -0.291 OA
BRANCH  12  14
ATOM     14  C   LIG    1        4.982  -0.324  -0.048  0.00  0.00    +0.200 C 
BRANCH  14  15
ATOM     15  C   LIG    1        6.426  -0.756  -0.064  0.00  0.00    +0.315 C 
ATOM     16  O   LIG    1        7.304   0.073  -0.069  0.00  0.00    -0.250 OA
BRANCH  15  17
ATOM     17  O   LIG    1        6.735  -2.062  -0.074  0.00  0.00    -0.465 OA
BRANCH  17  19
ATOM     18  C   LIG    1        8.301  -3.927  -0.099  0.00  0.00    +0.048 C 
ATOM     19  C   LIG    1        8.146  -2.405  -0.089  0.00  0.00    +0.229 C 
ENDBRANCH  17  19
ENDBRANCH  15  17
ENDBRANCH  14  15
ENDBRANCH  12  14
ENDBRANCH   1  12
BRANCH   6  20
ATOM     20  O   LIG    1       -2.420   3.785   0.046  0.00  0.00    -0.507 OA
ATOM     21  H   LIG    1       -2.447   4.885   0.056  0.00  0.00    +0.292 HD
ENDBRANCH   6  20
TORSDOF 6
