REMARK  Name = ZINC06091650
REMARK                            x       y       z     vdW  Elec       q    Type
REMARK                         _______ _______ _______ _____ _____    ______ ____
ROOT
ATOM      1  C   LIG    1        2.414   1.991  -0.010  0.00  0.00    +0.008 A 
ATOM      2  C   LIG    1        3.039   0.762  -0.022  0.00  0.00    +0.049 A 
ATOM      3  C   LIG    1        2.468  -0.512  -0.024  0.00  0.00    +0.162 A 
ATOM      4  C   LIG    1        1.120  -0.858  -0.013  0.00  0.00    +0.204 A 
ATOM      5  C   LIG    1        0.002  -0.004   0.002  0.00  0.00    +0.210 A 
ATOM      6  C   LIG    1       -0.017   1.410   0.010  0.00  0.00    +0.224 A 
ATOM      7  O   LIG    1       -1.246   1.984   0.018  0.00  0.00    -0.284 OA
ATOM      8  C   LIG    1        1.054   2.282   0.004  0.00  0.00    +0.055 A 
ENDROOT
BRANCH   3   9
ATOM      9  O   LIG    1        3.342  -1.549  -0.037  0.00  0.00    -0.503 OA
ATOM     10  H   LIG    1        4.264  -1.384  -0.045  0.00  0.00    +0.292 HD
ENDBRANCH   3   9
BRANCH   4  11
ATOM     11  O   LIG    1        0.850  -2.188  -0.018  0.00  0.00    -0.501 OA
ATOM     12  H   LIG    1       -0.193  -2.538  -0.009  0.00  0.00    +0.292 HD
ENDBRANCH   4  11
BRANCH   5  13
ATOM     13  O   LIG    1       -1.092  -0.555   0.010  0.00  0.00    -0.501 OA
ATOM     14  H   LIG    1       -1.146  -1.490   0.005  0.00  0.00    +0.292 HD
ENDBRANCH   5  13
TORSDOF 3
