REMARK  Name = ZINC07078876
REMARK                            x       y       z     vdW  Elec       q    Type
REMARK                         _______ _______ _______ _____ _____    ______ ____
ROOT
ATOM      1  N   LIG    1        4.851   0.008  -0.045  0.00  0.00    -0.279 N 
ATOM      2  H   LIG    1        4.749   0.963  -0.581  0.00  0.00    +0.155 HD
ATOM      3  C   LIG    1        3.775  -0.555   0.540  0.00  0.00    +0.248 C 
ATOM      4  O   LIG    1        3.870  -1.648   1.062  0.00  0.00    -0.270 OA
ENDROOT
BRANCH   1  10
ATOM      5  C   LIG    1        7.499  -4.133   0.075  0.00  0.00    +0.044 C 
ATOM      6  C   LIG    1        7.413  -2.628   0.090  0.00  0.00    -0.048 A 
ATOM      7  C   LIG    1        8.568  -1.872   0.178  0.00  0.00    +0.007 A 
ATOM      8  C   LIG    1        8.495  -0.492   0.193  0.00  0.00    +0.047 A 
ATOM      9  C   LIG    1        7.263   0.138   0.114  0.00  0.00    +0.138 A 
ATOM     10  C   LIG    1        6.099  -0.623   0.030  0.00  0.00    +0.076 A 
ATOM     11  C   LIG    1        6.181  -2.008   0.017  0.00  0.00    +0.030 A 
BRANCH   9  12
ATOM     12  O   LIG    1        7.190   1.496   0.122  0.00  0.00    -0.505 OA
ATOM     13  H   LIG    1        6.212   1.995   0.059  0.00  0.00    +0.292 HD
ENDBRANCH   9  12
ENDBRANCH   1  10
BRANCH   3  14
ATOM     14  C   LIG    1        2.480   0.158   0.546  0.00  0.00    +0.037 A 
ATOM     15  C   LIG    1        1.364  -0.422   1.151  0.00  0.00    +0.013 A 
ATOM     16  C   LIG    1        0.158   0.249   1.154  0.00  0.00    +0.001 A 
ATOM     17  C   LIG    1        0.054   1.493   0.558  0.00  0.00    +0.000 A 
ATOM     18  C   LIG    1        1.157   2.074  -0.043  0.00  0.00    +0.001 A 
ATOM     19  C   LIG    1        2.369   1.414  -0.052  0.00  0.00    +0.013 A 
ENDBRANCH   3  14
TORSDOF 3
