REMARK  Name = ZINC08536493
REMARK                            x       y       z     vdW  Elec       q    Type
REMARK                         _______ _______ _______ _____ _____    ______ ____
ROOT
ATOM      1  C   LIG    1       -1.271  -0.765  -0.099  0.00  0.00    +0.139 A 
ATOM      2  N   LIG    1       -1.387  -2.124  -0.110  0.00  0.00    -0.337 N 
ATOM      3  C   LIG    1       -2.722  -2.419   0.061  0.00  0.00    +0.074 A 
ATOM      4  C   LIG    1       -3.379  -1.205   0.171  0.00  0.00    +0.097 A 
ATOM      5  H   LIG    1       -0.665  -2.763  -0.217  0.00  0.00    +0.167 HD
ATOM      6  N   LIG    1       -2.460  -0.232   0.073  0.00  0.00    -0.227 NA
ENDROOT
BRANCH   4   7
ATOM      7  C   LIG    1       -4.836  -1.015   0.368  0.00  0.00    +0.003 A 
ATOM      8  C   LIG    1       -5.530  -1.815   1.275  0.00  0.00    +0.013 A 
ATOM      9  C   LIG    1       -6.886  -1.634   1.454  0.00  0.00    +0.039 A 
ATOM     10  C   LIG    1       -7.558  -0.659   0.735  0.00  0.00    +0.123 A 
ATOM     11  F   LIG    1       -8.886  -0.485   0.913  0.00  0.00    -0.205 F 
ATOM     12  C   LIG    1       -6.872   0.139  -0.168  0.00  0.00    +0.039 A 
ATOM     13  C   LIG    1       -5.516  -0.031  -0.350  0.00  0.00    +0.013 A 
ENDBRANCH   4   7
BRANCH   1  19
ATOM     14  C   LIG    1       -0.019   1.384  -0.217  0.00  0.00    +0.013 A 
ATOM     15  C   LIG    1        1.160   2.083  -0.358  0.00  0.00    +0.023 A 
ATOM     16  C   LIG    1        2.358   1.400  -0.535  0.00  0.00    +0.025 A 
ATOM     17  C   LIG    1        2.371   0.010  -0.569  0.00  0.00    +0.023 A 
ATOM     18  C   LIG    1        1.196  -0.695  -0.428  0.00  0.00    +0.013 A 
ATOM     19  C   LIG    1       -0.009  -0.012  -0.251  0.00  0.00    +0.017 A 
BRANCH  16  20
ATOM     20  N   LIG    1        3.549   2.111  -0.679  0.00  0.00    -0.358 N 
ATOM     21  H   LIG    1        4.386   1.635  -0.802  0.00  0.00    +0.142 HD
ATOM     22  H   LIG    1        3.541   3.080  -0.655  0.00  0.00    +0.142 HD
ENDBRANCH  16  20
ENDBRANCH   1  19
BRANCH   3  23
ATOM     23  C   LIG    1       -3.331  -3.762   0.115  0.00  0.00    +0.003 A 
ATOM     24  C   LIG    1       -4.474  -4.065  -0.636  0.00  0.00    +0.030 A 
ATOM     25  C   LIG    1       -5.009  -5.333  -0.555  0.00  0.00    +0.111 A 
ATOM     26  N   LIG    1       -4.460  -6.253   0.216  0.00  0.00    -0.263 NA
ATOM     27  C   LIG    1       -3.383  -6.010   0.940  0.00  0.00    +0.111 A 
ATOM     28  C   LIG    1       -2.779  -4.772   0.916  0.00  0.00    +0.030 A 
ENDBRANCH   3  23
TORSDOF 4
