REMARK  Name = ZINC06094158
REMARK                            x       y       z     vdW  Elec       q    Type
REMARK                         _______ _______ _______ _____ _____    ______ ____
ROOT
ATOM      1  C   LIG    1        1.156   3.177   0.008  0.00  0.00    +0.047 A 
ATOM      2  C   LIG    1       -0.037   3.864   0.022  0.00  0.00    +0.030 A 
ATOM      3  C   LIG    1       -1.241   3.170   0.029  0.00  0.00    +0.047 A 
ATOM      4  C   LIG    1       -1.230   1.761   0.017  0.00  0.00    +0.006 A 
ATOM      5  C   LIG    1       -2.629   1.353   0.036  0.00  0.00    -0.022 A 
ATOM      6  C   LIG    1       -3.378   2.475   0.048  0.00  0.00    +0.017 A 
ATOM      7  CA  LIG    1       -4.889   2.454   0.060  0.00  0.00    +0.087 C 
ATOM      8  N   LIG    1       -5.348   1.109  -0.353  0.00  0.00    +0.392 N 
ATOM      9  H1  LIG    1       -6.364   1.043  -0.218  0.00  0.00    -0.084 HD
ATOM     10  H2  LIG    1       -5.125   0.967  -1.345  0.00  0.00    -0.084 HD
ATOM     11  C   LIG    1       -4.682   0.063   0.450  0.00  0.00    -0.076 C 
ATOM     12  C   LIG    1       -3.206  -0.039   0.039  0.00  0.00    +0.018 C 
ATOM     13  C   LIG    1       -0.013   1.076   0.008  0.00  0.00    +0.055 A 
ATOM     14  N   LIG    1       -2.563   3.568   0.043  0.00  0.00    -0.359 N 
ATOM     15  H   LIG    1       -2.866   4.490   0.049  0.00  0.00    +0.166 HD
ATOM     16  C   LIG    1        1.172   1.785   0.001  0.00  0.00    +0.118 A 
ENDROOT
BRANCH   7  17
ATOM     17  C   LIG    1       -5.419   3.479  -0.909  0.00  0.00    +0.296 C 
ATOM     18  O   LIG    1       -5.798   3.136  -2.004  0.00  0.00    -0.252 OA
BRANCH  17  19
ATOM     19  OXT LIG    1       -5.470   4.773  -0.556  0.00  0.00    -0.481 OA
ATOM     20  HXT LIG    1       -5.176   5.039   0.293  0.00  0.00    +0.295 HD
ENDBRANCH  17  19
ENDBRANCH   7  17
BRANCH  16  21
ATOM     21  O   LIG    1        2.358   1.121  -0.013  0.00  0.00    -0.507 OA
ATOM     22  H   LIG    1        2.693   0.933  -0.901  0.00  0.00    +0.292 HD
ENDBRANCH  16  21
TORSDOF 3
