REMARK  Name = ZINC08143632
REMARK                            x       y       z     vdW  Elec       q    Type
REMARK                         _______ _______ _______ _____ _____    ______ ____
ROOT
ATOM      1  C   LIG    1       -0.892  -3.459   1.399  0.00  0.00    +0.192 C 
ATOM      2  C   LIG    1       -2.302  -3.972   1.103  0.00  0.00    +0.208 C 
ATOM      3  C   LIG    1       -2.995  -4.347   2.414  0.00  0.00    +0.193 C 
ATOM      4  C   LIG    1       -2.192  -5.442   3.119  0.00  0.00    +0.207 C 
ATOM      5  C   LIG    1       -0.781  -4.929   3.416  0.00  0.00    +0.185 C 
ATOM      6  C   LIG    1       -0.089  -4.554   2.105  0.00  0.00    +0.179 C 
ENDROOT
BRANCH   6   7
ATOM      7  O   LIG    1        1.229  -4.075   2.382  0.00  0.00    -0.386 OA
ATOM      8  H   LIG    1        1.822  -4.745   2.747  0.00  0.00    +0.210 HD
ENDBRANCH   6   7
BRANCH   5   9
ATOM      9  O   LIG    1       -0.032  -5.952   4.075  0.00  0.00    -0.386 OA
ATOM     10  H   LIG    1        0.891  -5.716   4.244  0.00  0.00    +0.210 HD
ENDBRANCH   5   9
BRANCH   4  11
ATOM     11  N   LIG    1       -2.855  -5.802   4.375  0.00  0.00    -0.271 N 
ATOM     12  H   LIG    1       -3.432  -5.161   4.820  0.00  0.00    +0.258 HD
BRANCH  11  13
ATOM     13  C   LIG    1       -2.661  -7.041   4.921  0.00  0.00    +0.341 C 
ATOM     14  N   LIG    1       -3.264  -7.368   6.062  0.00  0.00    -0.292 N 
ATOM     15  H   LIG    1       -3.126  -8.247   6.449  0.00  0.00    +0.255 HD
ATOM     16  H   LIG    1       -3.841  -6.728   6.507  0.00  0.00    +0.255 HD
BRANCH  13  17
ATOM     17  N   LIG    1       -1.869  -7.921   4.310  0.00  0.00    -0.292 N 
ATOM     18  H   LIG    1       -1.731  -8.800   4.697  0.00  0.00    +0.255 HD
ATOM     19  H   LIG    1       -1.430  -7.683   3.478  0.00  0.00    +0.255 HD
ENDBRANCH  13  17
ENDBRANCH  11  13
ENDBRANCH   4  11
BRANCH   3  20
ATOM     20  O   LIG    1       -4.312  -4.826   2.137  0.00  0.00    -0.385 OA
ATOM     21  H   LIG    1       -4.811  -5.083   2.924  0.00  0.00    +0.210 HD
ENDBRANCH   3  20
BRANCH   2  22
ATOM     22  N   LIG    1       -3.071  -2.923   0.427  0.00  0.00    -0.271 N 
ATOM     23  H   LIG    1       -2.833  -1.991   0.551  0.00  0.00    +0.258 HD
BRANCH  22  24
ATOM     24  C   LIG    1       -4.125  -3.259  -0.378  0.00  0.00    +0.341 C 
ATOM     25  N   LIG    1       -4.824  -2.306  -0.992  0.00  0.00    -0.292 N 
ATOM     26  H   LIG    1       -5.571  -2.543  -1.563  0.00  0.00    +0.255 HD
ATOM     27  H   LIG    1       -4.585  -1.373  -0.868  0.00  0.00    +0.255 HD
BRANCH  24  28
ATOM     28  N   LIG    1       -4.452  -4.539  -0.548  0.00  0.00    -0.292 N 
ATOM     29  H   LIG    1       -5.199  -4.777  -1.118  0.00  0.00    +0.255 HD
ATOM     30  H   LIG    1       -3.943  -5.233  -0.100  0.00  0.00    +0.255 HD
ENDBRANCH  24  28
ENDBRANCH  22  24
ENDBRANCH   2  22
BRANCH   1  31
ATOM     31  O   LIG    1       -0.245  -3.108   0.174  0.00  0.00    -0.339 OA
BRANCH  31  36
ATOM     32  C   LIG    1       -0.978   0.993  -1.140  0.00  0.00    +0.041 C 
ATOM     33  C   LIG    1       -0.595  -0.481  -0.992  0.00  0.00    +0.160 C 
ATOM     34  C   LIG    1        0.636  -0.808  -1.867  0.00  0.00    +0.177 C 
ATOM     35  C   LIG    1        1.447  -1.808  -1.014  0.00  0.00    +0.218 C 
ATOM     36  C   LIG    1        0.611  -1.968   0.275  0.00  0.00    +0.283 C 
ATOM     37  O   LIG    1       -0.172  -0.757   0.361  0.00  0.00    -0.342 OA
BRANCH  34  38
ATOM     38  C   LIG    1        0.207  -1.444  -3.164  0.00  0.00    +0.263 C 
ATOM     39  O   LIG    1       -0.966  -1.605  -3.399  0.00  0.00    -0.298 OA
ENDBRANCH  34  38
BRANCH  34  40
ATOM     40  O   LIG    1        1.400   0.374  -2.116  0.00  0.00    -0.376 OA
ATOM     41  H   LIG    1        0.918   1.060  -2.596  0.00  0.00    +0.211 HD
ENDBRANCH  34  40
BRANCH  35  42
ATOM     42  O   LIG    1        2.739  -1.277  -0.714  0.00  0.00    -0.341 OA
BRANCH  42  43
ATOM     43  C   LIG    1        3.772  -1.728  -1.592  0.00  0.00    +0.240 C 
ATOM     44  C   LIG    1        5.061  -0.952  -1.306  0.00  0.00    +0.017 C 
ATOM     45  C   LIG    1        5.513  -1.240   0.129  0.00  0.00    +0.136 C 
ATOM     46  C   LIG    1        5.693  -2.752   0.302  0.00  0.00    +0.172 C 
ATOM     47  C   LIG    1        4.380  -3.458  -0.046  0.00  0.00    +0.177 C 
ATOM     48  O   LIG    1        4.001  -3.123  -1.383  0.00  0.00    -0.345 OA
BRANCH  44  49
ATOM     49  N   LIG    1        4.813   0.487  -1.465  0.00  0.00    +0.384 N 
ATOM     50  H   LIG    1        5.638   1.002  -1.197  0.00  0.00    -0.086 HD
ATOM     51  H   LIG    1        4.040   0.761  -0.878  0.00  0.00    -0.086 HD
ATOM     52  C   LIG    1        4.489   0.776  -2.868  0.00  0.00    -0.100 C 
ENDBRANCH  44  49
BRANCH  46  53
ATOM     53  O   LIG    1        6.046  -3.038   1.657  0.00  0.00    -0.387 OA
ATOM     54  H   LIG    1        6.177  -3.979   1.839  0.00  0.00    +0.210 HD
ENDBRANCH  46  53
BRANCH  45  55
ATOM     55  O   LIG    1        6.753  -0.577   0.381  0.00  0.00    -0.391 OA
ATOM     56  H   LIG    1        7.099  -0.716   1.273  0.00  0.00    +0.210 HD
ENDBRANCH  45  55
BRANCH  47  57
ATOM     57  C   LIG    1        4.570  -4.972   0.067  0.00  0.00    +0.190 C 
BRANCH  57  58
ATOM     58  O   LIG    1        3.318  -5.626  -0.151  0.00  0.00    -0.392 OA
ATOM     59  H   LIG    1        3.347  -6.583  -0.019  0.00  0.00    +0.210 HD
ENDBRANCH  57  58
ENDBRANCH  47  57
ENDBRANCH  42  43
ENDBRANCH  35  42
ENDBRANCH  31  36
ENDBRANCH   1  31
TORSDOF 20
