REMARK  Name = ZINC06203319
REMARK                            x       y       z     vdW  Elec       q    Type
REMARK                         _______ _______ _______ _____ _____    ______ ____
ROOT
ATOM      1  C   LIG    1       -1.307   3.383   0.043  0.00  0.00    -0.035 A 
ATOM      2  C   LIG    1       -0.142   4.127   0.039  0.00  0.00    +0.050 A 
ATOM      3  C   LIG    1        1.087   3.487   0.019  0.00  0.00    +0.124 A 
ATOM      4  C   LIG    1        1.151   2.100   0.002  0.00  0.00    +0.039 A 
ATOM      5  C   LIG    1       -0.016   1.354   0.009  0.00  0.00    +0.128 A 
ATOM      6  O   LIG    1        0.002  -0.004   0.002  0.00  0.00    -0.486 OA
ATOM      7  C   LIG    1        1.226  -0.673  -0.309  0.00  0.00    +0.109 C 
ATOM      8  C   LIG    1        1.529  -0.532  -1.802  0.00  0.00    +0.055 C 
ATOM      9  C   LIG    1        1.117  -2.153   0.063  0.00  0.00    +0.055 C 
ATOM     10  C   LIG    1        2.346  -0.007   0.518  0.00  0.00    +0.044 C 
ATOM     11  C   LIG    1        1.865   0.043   1.973  0.00  0.00    +0.035 C 
ATOM     12  C   LIG    1        2.613   1.070   2.759  0.00  0.00    -0.025 C 
ATOM     13  C   LIG    1        3.342   2.006   2.242  0.00  0.00    -0.048 C 
ATOM     14  C   LIG    1        3.529   2.195   0.767  0.00  0.00    +0.041 C 
ATOM     15  C   LIG    1        2.490   1.420  -0.024  0.00  0.00    +0.037 C 
ATOM     16  C   LIG    1       -1.246   2.004   0.031  0.00  0.00    +0.050 A 
ENDROOT
BRANCH   1  17
ATOM     17  C   LIG    1       -2.644   4.077   0.062  0.00  0.00    -0.010 C 
ATOM     18  C   LIG    1       -3.417   3.660   1.315  0.00  0.00    +0.016 C 
ATOM     19  C   LIG    1       -3.441   3.685  -1.183  0.00  0.00    +0.016 C 
BRANCH  17  20
ATOM     20  C   LIG    1       -2.432   5.593   0.075  0.00  0.00    +0.011 C 
BRANCH  20  21
ATOM     21  C   LIG    1       -3.789   6.298   0.095  0.00  0.00    +0.001 C 
BRANCH  21  22
ATOM     22  C   LIG    1       -3.577   7.813   0.108  0.00  0.00    +0.000 C 
BRANCH  22  23
ATOM     23  C   LIG    1       -4.935   8.518   0.128  0.00  0.00    -0.000 C 
BRANCH  23  25
ATOM     24  C   LIG    1       -6.080  10.738   0.161  0.00  0.00    +0.004 C 
ATOM     25  C   LIG    1       -4.722  10.033   0.141  0.00  0.00    -0.003 C 
ENDBRANCH  23  25
ENDBRANCH  22  23
ENDBRANCH  21  22
ENDBRANCH  20  21
ENDBRANCH  17  20
ENDBRANCH   1  17
BRANCH   3  26
ATOM     26  O   LIG    1        2.232   4.218   0.014  0.00  0.00    -0.506 OA
ATOM     27  H   LIG    1        2.554   4.440  -0.871  0.00  0.00    +0.292 HD
ENDBRANCH   3  26
BRANCH  13  28
ATOM     28  C   LIG    1        4.042   2.959   3.176  0.00  0.00    +0.186 C 
BRANCH  28  29
ATOM     29  O   LIG    1        3.738   2.611   4.528  0.00  0.00    -0.391 OA
ATOM     30  H   LIG    1        4.156   3.184   5.185  0.00  0.00    +0.210 HD
ENDBRANCH  28  29
ENDBRANCH  13  28
TORSDOF 9
