REMARK  Name = ZINC06411540
REMARK                            x       y       z     vdW  Elec       q    Type
REMARK                         _______ _______ _______ _____ _____    ______ ____
ROOT
ATOM      1  C   LIG    1        3.206   2.433   3.553  0.00  0.00    +0.181 A 
ATOM      2  C   LIG    1        1.959   1.897   3.672  0.00  0.00    +0.208 A 
ATOM      3  C   LIG    1        1.228   1.565   2.502  0.00  0.00    +0.238 A 
ATOM      4  C   LIG    1        1.872   1.824   1.204  0.00  0.00    +0.109 A 
ATOM      5  C   LIG    1        1.223   1.527  -0.001  0.00  0.00    +0.135 A 
ATOM      6  C   LIG    1        1.859   1.791  -1.200  0.00  0.00    +0.091 A 
ATOM      7  C   LIG    1        3.137   2.342  -1.206  0.00  0.00    +0.124 A 
ATOM      8  C   LIG    1        3.787   2.633  -0.018  0.00  0.00    +0.092 A 
ATOM      9  C   LIG    1        3.165   2.376   1.195  0.00  0.00    +0.147 A 
ATOM     10  O   LIG    1        0.108   1.083   2.569  0.00  0.00    -0.283 OA
ATOM     11  O   LIG    1        3.785   2.654   2.361  0.00  0.00    -0.451 OA
ENDROOT
BRANCH   1  15
ATOM     12  C   LIG    1        5.355   3.411   7.082  0.00  0.00    +0.120 A 
ATOM     13  C   LIG    1        5.974   2.685   6.072  0.00  0.00    +0.046 A 
ATOM     14  C   LIG    1        5.281   2.365   4.926  0.00  0.00    +0.015 A 
ATOM     15  C   LIG    1        3.952   2.772   4.779  0.00  0.00    +0.021 A 
ATOM     16  C   LIG    1        3.334   3.507   5.795  0.00  0.00    +0.015 A 
ATOM     17  C   LIG    1        4.034   3.818   6.940  0.00  0.00    +0.046 A 
BRANCH  12  19
ATOM     18  C   LIG    1        5.344   4.472   9.209  0.00  0.00    +0.277 C 
ATOM     19  O   LIG    1        6.042   3.724   8.211  0.00  0.00    -0.495 OA
ENDBRANCH  12  19
ENDBRANCH   1  15
BRANCH   2  20
ATOM     20  O   LIG    1        1.419   1.681   4.902  0.00  0.00    -0.501 OA
ATOM     21  H   LIG    1        0.412   1.248   4.993  0.00  0.00    +0.292 HD
ENDBRANCH   2  20
BRANCH   5  22
ATOM     22  O   LIG    1       -0.023   0.990   0.007  0.00  0.00    -0.506 OA
ATOM     23  H   LIG    1       -0.529   0.758  -0.942  0.00  0.00    +0.292 HD
ENDBRANCH   5  22
BRANCH   7  24
ATOM     24  O   LIG    1        3.752   2.597  -2.389  0.00  0.00    -0.507 OA
ATOM     25  H   LIG    1        4.762   3.033  -2.401  0.00  0.00    +0.292 HD
ENDBRANCH   7  24
TORSDOF 5
