REMARK  Name = ZINC06995767
REMARK                            x       y       z     vdW  Elec       q    Type
REMARK                         _______ _______ _______ _____ _____    ______ ____
ROOT
ATOM      1  S   LIG    1       -1.512  -0.905   0.012  0.00  0.00    -0.008 S 
ATOM      2  N   LIG    1       -2.490   0.038   0.631  0.00  0.00    -0.096 NA
ATOM      3  S   LIG    1       -3.536   0.493  -0.576  0.00  0.00    +0.106 S 
ATOM      4  C   LIG    1       -2.998  -0.355  -2.028  0.00  0.00    +0.128 A 
ATOM      5  C   LIG    1       -3.487  -0.360  -3.321  0.00  0.00    +0.032 A 
ATOM      6  C   LIG    1       -2.869  -1.126  -4.292  0.00  0.00    +0.034 A 
ATOM      7  C   LIG    1       -1.764  -1.887  -3.963  0.00  0.00    +0.123 A 
ATOM      8  C   LIG    1       -1.278  -1.883  -2.671  0.00  0.00    +0.050 A 
ATOM      9  O   LIG    1       -4.810  -0.039  -0.237  0.00  0.00    -0.146 OA
ATOM     10  O   LIG    1       -3.320   1.878  -0.806  0.00  0.00    -0.146 OA
ATOM     11  C   LIG    1       -1.894  -1.114  -1.694  0.00  0.00    +0.054 A 
ENDROOT
BRANCH   1  18
ATOM     12  C   LIG    1       -0.017   1.378   0.010  0.00  0.00    +0.017 A 
ATOM     13  C   LIG    1        1.171   2.086   0.002  0.00  0.00    +0.016 A 
ATOM     14  C   LIG    1        2.378   1.411  -0.013  0.00  0.00    +0.018 A 
ATOM     15 BR   LIG    1        4.003   2.378  -0.024  0.00  0.00    -0.050 Br
ATOM     16  C   LIG    1        2.396   0.027  -0.021  0.00  0.00    +0.016 A 
ATOM     17  C   LIG    1        1.208  -0.679  -0.013  0.00  0.00    +0.017 A 
ATOM     18  C   LIG    1        0.002  -0.004   0.002  0.00  0.00    +0.025 A 
ENDBRANCH   1  18
BRANCH   7  19
ATOM     19  N   LIG    1       -1.099  -2.710  -5.000  0.00  0.00    +0.006 N 
ATOM     20  O   LIG    1       -0.132  -3.376  -4.714  0.00  0.00    -0.130 OA
BRANCH  19  21
ATOM     21  O   LIG    1       -1.524  -2.715  -6.131  0.00  0.00    -0.396 OA
ATOM     22  H   LIG    1       -2.274  -2.198  -6.353  0.00  0.00    +0.329 HD
ENDBRANCH  19  21
ENDBRANCH   7  19
TORSDOF 3
