REMARK  Name = ZINC06527954
REMARK                            x       y       z     vdW  Elec       q    Type
REMARK                         _______ _______ _______ _____ _____    ______ ____
ROOT
ATOM      1  S   LIG    1        3.891   2.315  -0.023  0.00  0.00    +0.086 S 
ATOM      2  O   LIG    1        3.597   3.595  -0.564  0.00  0.00    -0.151 OA
ATOM      3  O   LIG    1        4.872   1.456  -0.588  0.00  0.00    -0.151 OA
ENDROOT
BRANCH   1   6
ATOM      4  C   LIG    1       -0.017   1.380   0.010  0.00  0.00    +0.040 A 
ATOM      5  C   LIG    1        1.171   2.087   0.002  0.00  0.00    +0.031 A 
ATOM      6  C   LIG    1        2.377   1.412  -0.013  0.00  0.00    +0.108 A 
ATOM      7  C   LIG    1        2.397   0.030  -0.021  0.00  0.00    +0.031 A 
ATOM      8  C   LIG    1        1.211  -0.679  -0.014  0.00  0.00    +0.040 A 
ATOM      9  C   LIG    1        0.002  -0.004   0.002  0.00  0.00    +0.124 A 
ATOM     10  F   LIG    1       -1.158  -0.696   0.009  0.00  0.00    -0.205 F 
ENDBRANCH   1   6
BRANCH   1  11
ATOM     11  N   LIG    1        4.326   2.557   1.556  0.00  0.00    -0.050 NA
ATOM     12  H   LIG    1        4.425   3.459   1.900  0.00  0.00    +0.191 HD
BRANCH  11  13
ATOM     13  N   LIG    1        4.553   1.459   2.397  0.00  0.00    -0.182 N 
ATOM     14  H   LIG    1        3.866   0.783   2.507  0.00  0.00    +0.285 HD
BRANCH  13  15
ATOM     15  C   LIG    1        5.748   1.340   3.066  0.00  0.00    +0.394 C 
ATOM     16  N   LIG    1        6.670   2.249   2.918  0.00  0.00    -0.128 NA
ATOM     17  H   LIG    1        6.514   3.009   2.337  0.00  0.00    +0.306 HD
BRANCH  15  18
ATOM     18  N   LIG    1        5.970   0.263   3.891  0.00  0.00    -0.288 N 
ATOM     19  H   LIG    1        6.813   0.179   4.363  0.00  0.00    +0.255 HD
ATOM     20  H   LIG    1        5.283  -0.413   4.001  0.00  0.00    +0.255 HD
ENDBRANCH  15  18
ENDBRANCH  13  15
ENDBRANCH  11  13
ENDBRANCH   1  11
TORSDOF 5
