REMARK  Name = ZINC05925089
REMARK                            x       y       z     vdW  Elec       q    Type
REMARK                         _______ _______ _______ _____ _____    ______ ____
ROOT
ATOM      1  C   LIG    1        2.928   3.857  -0.005  0.00  0.00    +0.189 A 
ATOM      2  N   LIG    1        4.062   3.185  -0.025  0.00  0.00    -0.124 NA
ATOM      3  N   LIG    1        5.184   3.767  -0.032  0.00  0.00    -0.119 NA
ATOM      4  C   LIG    1        5.222   5.085  -0.018  0.00  0.00    +0.256 A 
ATOM      5  S   LIG    1        3.473   5.453  -0.002  0.00  0.00    -0.011 S 
ENDROOT
BRANCH   1   7
ATOM      6  C   LIG    1        1.395   2.047  -0.000  0.00  0.00    +0.219 C 
ATOM      7  N   LIG    1        1.623   3.376   0.005  0.00  0.00    -0.263 N 
ATOM      8  H   LIG    1        0.878   3.996   0.015  0.00  0.00    +0.157 HD
ATOM      9  O   LIG    1        2.328   1.272  -0.013  0.00  0.00    -0.275 OA
BRANCH   6  10
ATOM     10  C   LIG    1       -0.019   1.526   0.010  0.00  0.00    +0.107 C 
BRANCH  10  11
ATOM     11  C   LIG    1        0.002  -0.004   0.002  0.00  0.00    +0.129 C 
BRANCH  11  12
ATOM     12  C   LIG    1       -1.412  -0.526   0.013  0.00  0.00    +0.305 C 
ATOM     13  O   LIG    1       -2.349   0.254   0.026  0.00  0.00    -0.251 OA
BRANCH  12  14
ATOM     14  O   LIG    1       -1.618  -1.727   0.008  0.00  0.00    -0.481 OA
ATOM     15  H   LIG    1       -0.898  -2.326  -0.002  0.00  0.00    +0.295 HD
ENDBRANCH  12  14
ENDBRANCH  11  12
ENDBRANCH  10  11
ENDBRANCH   6  10
ENDBRANCH   1   7
BRANCH   4  16
ATOM     16  S   LIG    1        6.606   6.175  -0.023  0.00  0.00    +0.081 S 
ATOM     17  O   LIG    1        6.254   7.281   0.797  0.00  0.00    -0.151 OA
ATOM     18  O   LIG    1        6.999   6.327  -1.380  0.00  0.00    -0.151 OA
BRANCH  16  19
ATOM     19  N   LIG    1        7.848   5.393   0.745  0.00  0.00    -0.202 NA
ATOM     20  H   LIG    1        8.016   4.530   0.228  0.00  0.00    +0.144 HD
ATOM     21  H   LIG    1        8.707   5.831   0.847  0.00  0.00    +0.144 HD
ENDBRANCH  16  19
ENDBRANCH   4  16
TORSDOF 7
