REMARK  Name = ZINC06143134
REMARK                            x       y       z     vdW  Elec       q    Type
REMARK                         _______ _______ _______ _____ _____    ______ ____
ROOT
ATOM      1  C   LIG    1       -0.785  -0.318   1.095  0.00  0.00    +0.127 C 
ENDROOT
BRANCH   1   3
ATOM      2  C   LIG    1       -0.054   1.861   0.287  0.00  0.00    +0.216 C 
ATOM      3  N   LIG    1       -1.001   1.117   0.892  0.00  0.00    -0.296 N 
ATOM      4  O   LIG    1        1.015   1.367   0.000  0.00  0.00    -0.276 OA
BRANCH   2   5
ATOM      5  C   LIG    1       -0.326   3.309  -0.034  0.00  0.00    +0.107 C 
BRANCH   5   6
ATOM      6  C   LIG    1        0.900   3.918  -0.718  0.00  0.00    +0.130 C 
BRANCH   6   7
ATOM      7  C   LIG    1        0.629   5.365  -1.038  0.00  0.00    +0.307 C 
ATOM      8  O   LIG    1       -0.436   5.859  -0.750  0.00  0.00    -0.251 OA
BRANCH   7  10
ATOM      9  C   LIG    1        1.239   7.492  -1.923  0.00  0.00    +0.280 C 
ATOM     10  O   LIG    1        1.569   6.106  -1.645  0.00  0.00    -0.468 OA
ENDBRANCH   7  10
ENDBRANCH   6   7
ENDBRANCH   5   6
ENDBRANCH   2   5
BRANCH   3  11
ATOM     11  C   LIG    1       -2.247   1.740   1.342  0.00  0.00    +0.143 C 
BRANCH  11  12
ATOM     12  C   LIG    1       -3.280   1.644   0.249  0.00  0.00    -0.030 A 
ATOM     13  C   LIG    1       -3.486   2.712  -0.604  0.00  0.00    +0.005 A 
ATOM     14  C   LIG    1       -4.430   2.622  -1.610  0.00  0.00    +0.000 A 
ATOM     15  C   LIG    1       -5.176   1.467  -1.756  0.00  0.00    +0.000 A 
ATOM     16  C   LIG    1       -4.974   0.401  -0.899  0.00  0.00    +0.000 A 
ATOM     17  C   LIG    1       -4.026   0.489   0.103  0.00  0.00    +0.005 A 
ENDBRANCH  11  12
ENDBRANCH   3  11
ENDBRANCH   1   3
BRANCH   1  18
ATOM     18  C   LIG    1       -0.104  -0.546   2.446  0.00  0.00    +0.127 C 
BRANCH  18  19
ATOM     19  N   LIG    1        0.112  -1.980   2.649  0.00  0.00    -0.296 N 
ATOM     20  C   LIG    1        1.256  -2.555   2.230  0.00  0.00    +0.216 C 
ATOM     21  O   LIG    1        2.135  -1.875   1.745  0.00  0.00    -0.276 OA
BRANCH  20  22
ATOM     22  C   LIG    1        1.445  -4.045   2.365  0.00  0.00    +0.107 C 
BRANCH  22  23
ATOM     23  C   LIG    1        2.853  -4.424   1.903  0.00  0.00    +0.130 C 
BRANCH  23  24
ATOM     24  C   LIG    1        3.041  -5.913   2.037  0.00  0.00    +0.307 C 
ATOM     25  O   LIG    1        2.142  -6.600   2.460  0.00  0.00    -0.251 OA
BRANCH  24  26
ATOM     26  O   LIG    1        4.208  -6.477   1.688  0.00  0.00    -0.468 OA
ATOM     27  C   LIG    1        4.319  -7.916   1.844  0.00  0.00    +0.280 C 
ENDBRANCH  24  26
ENDBRANCH  23  24
ENDBRANCH  22  23
ENDBRANCH  20  22
BRANCH  19  28
ATOM     28  C   LIG    1       -0.917  -2.790   3.307  0.00  0.00    +0.143 C 
BRANCH  28  29
ATOM     29  C   LIG    1       -0.735  -2.715   4.801  0.00  0.00    -0.030 A 
ATOM     30  C   LIG    1        0.082  -3.626   5.445  0.00  0.00    +0.005 A 
ATOM     31  C   LIG    1        0.252  -3.554   6.815  0.00  0.00    +0.000 A 
ATOM     32  C   LIG    1       -0.403  -2.578   7.542  0.00  0.00    +0.000 A 
ATOM     33  C   LIG    1       -1.224  -1.671   6.900  0.00  0.00    +0.000 A 
ATOM     34  C   LIG    1       -1.390  -1.739   5.529  0.00  0.00    +0.005 A 
ENDBRANCH  28  29
ENDBRANCH  19  28
ENDBRANCH  18  19
ENDBRANCH   1  18
TORSDOF 15
