REMARK  Name = ZINC08385400
REMARK                            x       y       z     vdW  Elec       q    Type
REMARK                         _______ _______ _______ _____ _____    ______ ____
ROOT
ATOM      1  C   LIG    1       -4.362   6.505   0.057  0.00  0.00    +0.037 A 
ATOM      2  C   LIG    1       -3.807   6.063   1.259  0.00  0.00    +0.013 A 
ATOM      3  C   LIG    1       -2.728   5.203   1.242  0.00  0.00    +0.005 A 
ATOM      4  C   LIG    1       -2.196   4.780   0.037  0.00  0.00    -0.037 A 
ATOM      5  C   LIG    1       -2.739   5.218  -1.158  0.00  0.00    +0.005 A 
ATOM      6  C   LIG    1       -3.821   6.074  -1.155  0.00  0.00    +0.013 A 
ENDROOT
BRANCH   1   9
ATOM      7  N   LIG    1       -6.053   7.851  -1.094  0.00  0.00    -0.279 N 
ATOM      8  H   LIG    1       -5.630   7.618  -1.936  0.00  0.00    +0.155 HD
ATOM      9  C   LIG    1       -5.519   7.426   0.068  0.00  0.00    +0.248 C 
ATOM     10  O   LIG    1       -5.989   7.799   1.125  0.00  0.00    -0.270 OA
BRANCH   7  16
ATOM     11  C   LIG    1       -7.496   9.480  -2.154  0.00  0.00    +0.141 A 
ATOM     12  C   LIG    1       -8.650  10.246  -2.141  0.00  0.00    +0.047 A 
ATOM     13  C   LIG    1       -9.522  10.165  -1.072  0.00  0.00    +0.004 A 
ATOM     14  C   LIG    1       -9.247   9.320  -0.013  0.00  0.00    +0.002 A 
ATOM     15  C   LIG    1       -8.101   8.548  -0.019  0.00  0.00    +0.027 A 
ATOM     16  C   LIG    1       -7.218   8.628  -1.087  0.00  0.00    +0.076 A 
BRANCH  11  18
ATOM     17  C   LIG    1       -6.987  10.452  -4.263  0.00  0.00    +0.277 C 
ATOM     18  O   LIG    1       -6.637   9.558  -3.205  0.00  0.00    -0.493 OA
ENDBRANCH  11  18
ENDBRANCH   7  16
ENDBRANCH   1   9
BRANCH   4  19
ATOM     19  C   LIG    1       -1.017   3.841   0.026  0.00  0.00    +0.112 C 
BRANCH  19  20
ATOM     20  S   LIG    1       -1.608   2.130   0.022  0.00  0.00    -0.080 S 
BRANCH  20  21
ATOM     21  C   LIG    1       -0.068   1.275   0.009  0.00  0.00    +0.212 A 
ATOM     22  N   LIG    1       -0.060  -0.052   0.003  0.00  0.00    -0.201 NA
ATOM     23  C   LIG    1        1.103  -0.696  -0.012  0.00  0.00    +0.162 A 
ATOM     24  C   LIG    1        2.289   0.067  -0.021  0.00  0.00    +0.137 A 
ATOM     25  N   LIG    1        2.214   1.389  -0.015  0.00  0.00    -0.143 NA
ATOM     26  C   LIG    1        3.401  -0.899  -0.037  0.00  0.00    +0.029 A 
ATOM     27  C   LIG    1        4.788  -0.767  -0.052  0.00  0.00    +0.012 A 
ATOM     28  C   LIG    1        5.583  -1.892  -0.067  0.00  0.00    +0.001 A 
ATOM     29  C   LIG    1        5.008  -3.154  -0.065  0.00  0.00    +0.002 A 
ATOM     30  C   LIG    1        3.637  -3.299  -0.051  0.00  0.00    +0.026 A 
ATOM     31  C   LIG    1        2.817  -2.175  -0.037  0.00  0.00    +0.050 A 
ATOM     32  N   LIG    1        1.440  -2.026  -0.021  0.00  0.00    -0.338 N 
ATOM     33  H   LIG    1        0.804  -2.759  -0.017  0.00  0.00    +0.167 HD
ATOM     34  N   LIG    1        1.064   1.971   0.000  0.00  0.00    -0.122 NA
ENDBRANCH  20  21
ENDBRANCH  19  20
ENDBRANCH   4  19
TORSDOF 6
