REMARK  Name = ZINC06021033
REMARK                            x       y       z     vdW  Elec       q    Type
REMARK                         _______ _______ _______ _____ _____    ______ ____
ROOT
ATOM      1  C   LIG    1        0.742  -0.511   1.242  0.00  0.00    +0.018 C 
ENDROOT
BRANCH   1   2
ATOM      2  C   LIG    1        0.870  -2.011   1.172  0.00  0.00    -0.049 A 
ATOM      3  C   LIG    1       -0.117  -2.814   1.710  0.00  0.00    +0.003 A 
ATOM      4  C   LIG    1       -0.000  -4.190   1.647  0.00  0.00    +0.000 A 
ATOM      5  C   LIG    1        1.104  -4.763   1.044  0.00  0.00    +0.000 A 
ATOM      6  C   LIG    1        2.091  -3.959   0.504  0.00  0.00    +0.000 A 
ATOM      7  C   LIG    1        1.972  -2.583   0.564  0.00  0.00    +0.003 A 
ENDBRANCH   1   2
BRANCH   1   9
ATOM      8  C   LIG    1       -0.019   1.526   0.010  0.00  0.00    -0.014 C 
ATOM      9  C   LIG    1        0.002  -0.004   0.002  0.00  0.00    -0.074 C 
BRANCH   9  10
ATOM     10  N   LIG    1       -1.376  -0.512   0.012  0.00  0.00    +0.380 N 
ATOM     11  H   LIG    1       -1.848  -0.187   0.843  0.00  0.00    -0.090 HD
ATOM     12  H   LIG    1       -1.362  -1.521   0.007  0.00  0.00    -0.090 HD
ATOM     13  H   LIG    1       -1.864  -0.178  -0.805  0.00  0.00    -0.090 HD
ENDBRANCH   9  10
ENDBRANCH   1   9
TORSDOF 3
