REMARK  Name = ZINC06071292
REMARK                            x       y       z     vdW  Elec       q    Type
REMARK                         _______ _______ _______ _____ _____    ______ ____
ROOT
ATOM      1  C   LIG    1        2.672   1.334   0.006  0.00  0.00    +0.019 C 
ENDROOT
BRANCH   1   6
ATOM      2  C   LIG    1       -1.539   5.078   0.581  0.00  0.00    +0.051 C 
ATOM      3  C   LIG    1       -0.607   3.901   0.462  0.00  0.00    -0.013 A 
ATOM      4  C   LIG    1       -0.890   2.577   0.531  0.00  0.00    +0.011 A 
ATOM      5  C   LIG    1        0.139   1.663   0.396  0.00  0.00    +0.012 A 
ATOM      6  C   LIG    1        1.399   2.118   0.188  0.00  0.00    -0.008 A 
ATOM      7  S   LIG    1        1.157   3.887   0.186  0.00  0.00    -0.098 S 
ENDBRANCH   1   6
BRANCH   1   8
ATOM      8  C   LIG    1        3.279   1.657  -1.361  0.00  0.00    -0.077 C 
BRANCH   8   9
ATOM      9  N   LIG    1        4.497   0.849  -1.550  0.00  0.00    +0.379 N 
ATOM     10  H   LIG    1        5.190   1.113  -0.839  0.00  0.00    -0.090 HD
ATOM     11  H   LIG    1        4.888   1.018  -2.475  0.00  0.00    -0.090 HD
ATOM     12  H   LIG    1        4.278  -0.141  -1.449  0.00  0.00    -0.090 HD
ENDBRANCH   8   9
ENDBRANCH   1   8
BRANCH   1  13
ATOM     13  C   LIG    1        3.666   1.712   1.107  0.00  0.00    +0.127 C 
BRANCH  13  14
ATOM     14  C   LIG    1        3.131   1.261   2.442  0.00  0.00    +0.305 C 
ATOM     15  O   LIG    1        2.119   0.604   2.497  0.00  0.00    -0.251 OA
BRANCH  14  16
ATOM     16  O   LIG    1        3.780   1.591   3.570  0.00  0.00    -0.481 OA
ATOM     17  H   LIG    1        4.565   2.101   3.527  0.00  0.00    +0.295 HD
ENDBRANCH  14  16
ENDBRANCH  13  14
ENDBRANCH   1  13
TORSDOF 6
