REMARK  Name = ZINC06701735
REMARK                            x       y       z     vdW  Elec       q    Type
REMARK                         _______ _______ _______ _____ _____    ______ ____
ROOT
ATOM      1  N   LIG    1       -0.698   1.558   1.213  0.00  0.00    -0.305 N 
ATOM      2  H   LIG    1       -1.495   2.106   1.135  0.00  0.00    +0.149 HD
ATOM      3  C   LIG    1       -0.222   1.232   2.431  0.00  0.00    +0.285 C 
ATOM      4  O   LIG    1        0.775   0.547   2.529  0.00  0.00    -0.267 OA
ENDROOT
BRANCH   3   5
ATOM      5  C   LIG    1       -0.920   1.714   3.659  0.00  0.00    +0.249 C 
ATOM      6  O   LIG    1       -1.919   2.399   3.560  0.00  0.00    -0.282 OA
BRANCH   5   7
ATOM      7  C   LIG    1       -0.403   1.360   4.980  0.00  0.00    +0.052 A 
ATOM      8  C   LIG    1        0.710   0.589   5.257  0.00  0.00    +0.095 A 
ATOM      9  N   LIG    1        0.868   0.488   6.589  0.00  0.00    -0.360 N 
ATOM     10  C   LIG    1       -0.129   1.174   7.253  0.00  0.00    +0.047 A 
ATOM     11  C   LIG    1       -0.410   1.369   8.601  0.00  0.00    +0.026 A 
ATOM     12  C   LIG    1       -1.504   2.121   8.975  0.00  0.00    +0.002 A 
ATOM     13  C   LIG    1       -2.331   2.689   8.018  0.00  0.00    +0.001 A 
ATOM     14  C   LIG    1       -2.068   2.507   6.676  0.00  0.00    +0.011 A 
ATOM     15  H   LIG    1        1.583  -0.004   7.023  0.00  0.00    +0.165 HD
ATOM     16  C   LIG    1       -0.968   1.750   6.286  0.00  0.00    +0.011 A 
ENDBRANCH   5   7
ENDBRANCH   3   5
BRANCH   1  17
ATOM     17  C   LIG    1       -0.013   1.086   0.008  0.00  0.00    +0.140 C 
BRANCH  17  22
ATOM     18  C   LIG    1       -1.069   3.259  -2.897  0.00  0.00    +0.120 A 
ATOM     19  C   LIG    1       -2.084   2.496  -3.456  0.00  0.00    +0.045 A 
ATOM     20  C   LIG    1       -2.424   1.282  -2.892  0.00  0.00    +0.004 A 
ATOM     21  C   LIG    1       -1.750   0.824  -1.775  0.00  0.00    +0.005 A 
ATOM     22  C   LIG    1       -0.742   1.585  -1.213  0.00  0.00    -0.027 A 
ATOM     23  C   LIG    1       -0.398   2.800  -1.773  0.00  0.00    +0.050 A 
BRANCH  18  25
ATOM     24  C   LIG    1       -1.465   4.863  -4.607  0.00  0.00    +0.277 C 
ATOM     25  O   LIG    1       -0.732   4.454  -3.451  0.00  0.00    -0.495 OA
ENDBRANCH  18  25
ENDBRANCH  17  22
ENDBRANCH   1  17
TORSDOF 5
