REMARK  Name = ZINC07653965
REMARK                            x       y       z     vdW  Elec       q    Type
REMARK                         _______ _______ _______ _____ _____    ______ ____
ROOT
ATOM      1  N   LIG    1        6.011  -2.069   0.714  0.00  0.00    +0.383 N 
ATOM      2  H   LIG    1        5.841  -2.235   1.695  0.00  0.00    -0.086 HD
ATOM      3  H   LIG    1        6.060  -1.076   0.544  0.00  0.00    -0.086 HD
ENDROOT
BRANCH   1   4
ATOM      4  C   LIG    1        4.918  -2.649  -0.077  0.00  0.00    -0.034 C 
BRANCH   4  12
ATOM      5  C   LIG    1       -0.017   1.378   0.010  0.00  0.00    +0.004 A 
ATOM      6  C   LIG    1        1.170   2.088   0.002  0.00  0.00    +0.004 A 
ATOM      7  C   LIG    1        2.378   1.418  -0.014  0.00  0.00    +0.049 A 
ATOM      8  C   LIG    1        2.404   0.031  -0.023  0.00  0.00    +0.162 A 
ATOM      9  C   LIG    1        1.212  -0.683  -0.013  0.00  0.00    +0.162 A 
ATOM     10  O   LIG    1        1.214  -2.044  -0.013  0.00  0.00    -0.485 OA
ATOM     11  C   LIG    1        2.434  -2.685  -0.404  0.00  0.00    +0.271 C 
ATOM     12  C   LIG    1        3.594  -1.997   0.328  0.00  0.00    +0.194 C 
ATOM     13  O   LIG    1        3.602  -0.615  -0.043  0.00  0.00    -0.484 OA
ATOM     14  C   LIG    1        0.002  -0.004   0.002  0.00  0.00    +0.049 A 
ENDBRANCH   4  12
ENDBRANCH   1   4
BRANCH   1  15
ATOM     15  C   LIG    1        7.282  -2.695   0.325  0.00  0.00    -0.047 C 
BRANCH  15  16
ATOM     16  C   LIG    1        8.421  -2.091   1.150  0.00  0.00    +0.135 C 
BRANCH  16  17
ATOM     17  O   LIG    1        8.489  -0.684   0.909  0.00  0.00    -0.390 OA
ATOM     18  H   LIG    1        8.651  -0.451  -0.016  0.00  0.00    +0.210 HD
ENDBRANCH  16  17
BRANCH  16  19
ATOM     19  C   LIG    1        9.745  -2.743   0.745  0.00  0.00    +0.258 C 
BRANCH  19  20
ATOM     20  O   LIG    1       10.790  -2.265   1.593  0.00  0.00    -0.487 OA
BRANCH  20  21
ATOM     21  C   LIG    1       12.040  -2.749   1.365  0.00  0.00    +0.156 A 
ATOM     22  C   LIG    1       12.257  -3.660   0.343  0.00  0.00    +0.048 A 
ATOM     23  C   LIG    1       13.528  -4.151   0.113  0.00  0.00    +0.004 A 
ATOM     24  C   LIG    1       14.585  -3.735   0.901  0.00  0.00    +0.003 A 
ATOM     25  C   LIG    1       14.373  -2.826   1.922  0.00  0.00    +0.042 A 
ATOM     26  C   LIG    1       13.104  -2.327   2.152  0.00  0.00    +0.165 A 
ATOM     27  F   LIG    1       12.899  -1.434   3.146  0.00  0.00    -0.202 F 
ENDBRANCH  20  21
ENDBRANCH  19  20
ENDBRANCH  16  19
ENDBRANCH  15  16
ENDBRANCH   1  15
TORSDOF 8
