REMARK  Name = ZINC06096369
REMARK                            x       y       z     vdW  Elec       q    Type
REMARK                         _______ _______ _______ _____ _____    ______ ____
ROOT
ATOM      1  C   LIG    1        5.309  -1.601  -1.695  0.00  0.00    +0.159 A 
ATOM      2  C   LIG    1        5.699  -1.819  -3.029  0.00  0.00    +0.170 A 
ATOM      3 CL   LIG    1        4.691  -1.256  -4.325  0.00  0.00    -0.058 Cl
ATOM      4  N   LIG    1        6.821  -2.446  -3.301  0.00  0.00    -0.225 NA
ATOM      5  C   LIG    1        7.595  -2.879  -2.305  0.00  0.00    +0.150 A 
ATOM      6  C   LIG    1        7.208  -2.663  -0.960  0.00  0.00    +0.187 A 
ATOM      7  N   LIG    1        8.005  -3.108   0.020  0.00  0.00    -0.193 NA
ATOM      8  C   LIG    1        9.130  -3.737  -0.265  0.00  0.00    +0.221 A 
ATOM      9  N   LIG    1        9.532  -3.962  -1.512  0.00  0.00    -0.197 NA
ATOM     10  C   LIG    1        8.813  -3.560  -2.551  0.00  0.00    +0.154 A 
ATOM     11  N   LIG    1        6.067  -2.019  -0.696  0.00  0.00    -0.208 NA
ENDROOT
BRANCH   8  12
ATOM     12  N   LIG    1        9.924  -4.181   0.777  0.00  0.00    -0.303 N 
ATOM     13  C   LIG    1       11.284  -3.636   0.672  0.00  0.00    +0.089 C 
ATOM     14  C   LIG    1       12.150  -4.212   1.795  0.00  0.00    -0.063 C 
ATOM     15  N   LIG    1       11.554  -3.872   3.101  0.00  0.00    +0.381 N 
ATOM     16  H   LIG    1       12.133  -4.266   3.851  0.00  0.00    -0.086 HD
ATOM     17  H   LIG    1       11.516  -2.850   3.200  0.00  0.00    -0.086 HD
ATOM     18  C   LIG    1       10.189  -4.422   3.199  0.00  0.00    -0.063 C 
ATOM     19  C   LIG    1        9.323  -3.846   2.076  0.00  0.00    +0.089 C 
ENDBRANCH   8  12
BRANCH  10  20
ATOM     20  N   LIG    1        9.241  -3.799  -3.839  0.00  0.00    -0.313 N 
ATOM     21  C   LIG    1        9.486  -2.525  -4.563  0.00  0.00    +0.106 C 
ATOM     22  C   LIG    1       10.422  -2.951  -5.723  0.00  0.00    +0.020 C 
ATOM     23  C   LIG    1       11.327  -4.017  -5.064  0.00  0.00    +0.020 C 
ATOM     24  C   LIG    1       10.532  -4.521  -3.844  0.00  0.00    +0.106 C 
ENDBRANCH  10  20
BRANCH   1  25
ATOM     25  N   LIG    1        4.123  -0.938  -1.426  0.00  0.00    -0.323 N 
ATOM     26  H   LIG    1        3.566  -0.626  -2.156  0.00  0.00    +0.148 HD
BRANCH  25  27
ATOM     27  C   LIG    1        3.711  -0.707  -0.039  0.00  0.00    +0.138 C 
BRANCH  27  31
ATOM     28  C   LIG    1       -0.017   1.378   0.010  0.00  0.00    +0.000 A 
ATOM     29  C   LIG    1        1.171   2.086   0.002  0.00  0.00    +0.000 A 
ATOM     30  C   LIG    1        2.377   1.411  -0.014  0.00  0.00    +0.005 A 
ATOM     31  C   LIG    1        2.396   0.029  -0.022  0.00  0.00    -0.030 A 
ATOM     32  C   LIG    1        1.208  -0.679  -0.014  0.00  0.00    +0.005 A 
ATOM     33  C   LIG    1        0.002  -0.004   0.002  0.00  0.00    +0.000 A 
ENDBRANCH  27  31
ENDBRANCH  25  27
ENDBRANCH   1  25
TORSDOF 5
