REMARK  Name = ZINC08324367
REMARK                            x       y       z     vdW  Elec       q    Type
REMARK                         _______ _______ _______ _____ _____    ______ ____
ROOT
ATOM      1  C   LIG    1       -0.025   0.017  -2.491  0.00  0.00    +0.081 C 
ATOM      2  C   LIG    1        0.786  -0.683  -1.398  0.00  0.00    +0.002 C 
ATOM      3  C   LIG    1        0.145  -0.413  -0.035  0.00  0.00    +0.008 C 
ATOM      4  C   LIG    1        0.126   1.094   0.230  0.00  0.00    -0.010 C 
ATOM      5  C   LIG    1        1.558   1.631   0.225  0.00  0.00    +0.007 C 
ATOM      6  C   LIG    1        2.200   1.361  -1.138  0.00  0.00    -0.010 C 
ATOM      7  C   LIG    1        1.389   2.061  -2.231  0.00  0.00    +0.008 C 
ATOM      8  C   LIG    1       -0.685   1.794  -0.863  0.00  0.00    +0.008 C 
ATOM      9  C   LIG    1        2.219  -0.145  -1.403  0.00  0.00    +0.008 C 
ATOM     10  C   LIG    1       -0.044   1.524  -2.226  0.00  0.00    +0.002 C 
ENDROOT
BRANCH   1  15
ATOM     11  C   LIG    1       -3.774  -0.204  -5.849  0.00  0.00    +0.003 C 
ATOM     12  C   LIG    1       -4.098  -1.171  -4.708  0.00  0.00    +0.019 C 
ATOM     13  C   LIG    1       -3.717  -0.525  -3.372  0.00  0.00    +0.108 C 
ATOM     14  N   LIG    1       -2.309  -0.112  -3.431  0.00  0.00    -0.301 N 
ATOM     15  C   LIG    1       -1.436  -0.512  -2.486  0.00  0.00    +0.219 C 
ATOM     16  O   LIG    1       -1.786  -1.298  -1.631  0.00  0.00    -0.275 OA
ATOM     17  C   LIG    1       -1.871   0.750  -4.538  0.00  0.00    +0.108 C 
ATOM     18  C   LIG    1       -2.271   0.084  -5.863  0.00  0.00    +0.019 C 
ENDBRANCH   1  15
TORSDOF 1
