REMARK  Name = ZINC07909010
REMARK                            x       y       z     vdW  Elec       q    Type
REMARK                         _______ _______ _______ _____ _____    ______ ____
ROOT
ATOM      1  N   LIG    1       -1.372  -0.511   0.012  0.00  0.00    -0.348 N 
ATOM      2  H   LIG    1       -1.980  -0.281  -0.708  0.00  0.00    +0.163 HD
ATOM      3  C   LIG    1       -1.779  -1.271   0.989  0.00  0.00    +0.211 C 
ENDROOT
BRANCH   3   4
ATOM      4  C   LIG    1       -3.161  -1.781   1.000  0.00  0.00    +0.100 A 
ATOM      5  C   LIG    1       -4.098  -1.534   0.049  0.00  0.00    +0.041 A 
ATOM      6  C   LIG    1       -5.287  -2.203   0.430  0.00  0.00    +0.000 A 
ATOM      7  C   LIG    1       -6.559  -2.309  -0.146  0.00  0.00    +0.010 A 
ATOM      8  C   LIG    1       -7.526  -3.045   0.474  0.00  0.00    +0.001 A 
ATOM      9  C   LIG    1       -7.262  -3.691   1.675  0.00  0.00    +0.002 A 
ATOM     10  C   LIG    1       -6.020  -3.602   2.261  0.00  0.00    +0.026 A 
ATOM     11  C   LIG    1       -5.017  -2.858   1.647  0.00  0.00    +0.047 A 
ATOM     12  N   LIG    1       -3.707  -2.591   1.975  0.00  0.00    -0.351 N 
ATOM     13  H   LIG    1       -3.245  -2.916   2.763  0.00  0.00    +0.166 HD
ENDBRANCH   3   4
BRANCH   1  15
ATOM     14  C   LIG    1       -0.019   1.526   0.010  0.00  0.00    +0.035 C 
ATOM     15  C   LIG    1        0.002  -0.004   0.002  0.00  0.00    +0.109 C 
BRANCH  15  16
ATOM     16  C   LIG    1        0.707  -0.490  -1.238  0.00  0.00    -0.025 A 
ATOM     17  C   LIG    1        0.038  -0.522  -2.447  0.00  0.00    +0.005 A 
ATOM     18  C   LIG    1        0.685  -0.967  -3.584  0.00  0.00    +0.000 A 
ATOM     19  C   LIG    1        2.002  -1.381  -3.513  0.00  0.00    +0.000 A 
ATOM     20  C   LIG    1        2.672  -1.349  -2.304  0.00  0.00    +0.000 A 
ATOM     21  C   LIG    1        2.026  -0.899  -1.167  0.00  0.00    +0.005 A 
ENDBRANCH  15  16
ENDBRANCH   1  15
BRANCH   3  22
ATOM     22  O   LIG    1       -0.932  -1.592   1.994  0.00  0.00    -0.492 OA
ATOM     23  H   LIG    1       -1.323  -2.159   2.673  0.00  0.00    +0.294 HD
ENDBRANCH   3  22
TORSDOF 4
