REMARK  Name = ZINC06511828
REMARK                            x       y       z     vdW  Elec       q    Type
REMARK                         _______ _______ _______ _____ _____    ______ ____
ROOT
ATOM      1  N   LIG    1        0.613   3.090  -0.063  0.00  0.00    -0.283 N 
ATOM      2  C   LIG    1       -0.698   2.865   0.152  0.00  0.00    +0.264 C 
ATOM      3  O   LIG    1       -1.093   1.736   0.379  0.00  0.00    -0.268 OA
ENDROOT
BRANCH   2   4
ATOM      4  C   LIG    1       -1.651   3.978   0.105  0.00  0.00    +0.102 A 
ATOM      5  C   LIG    1       -2.992   3.913   0.426  0.00  0.00    +0.033 A 
ATOM      6  C   LIG    1       -3.526   5.188   0.247  0.00  0.00    +0.028 A 
ATOM      7  C   LIG    1       -2.508   6.012  -0.181  0.00  0.00    +0.047 A 
ATOM      8  N   LIG    1       -1.363   5.274  -0.261  0.00  0.00    -0.351 N 
ATOM      9  H   LIG    1       -0.493   5.606  -0.532  0.00  0.00    +0.166 HD
BRANCH   7  10
ATOM     10  C   LIG    1       -2.633   7.451  -0.493  0.00  0.00    -0.002 A 
ATOM     11  C   LIG    1       -1.498   8.204  -0.798  0.00  0.00    +0.010 A 
ATOM     12  C   LIG    1       -1.622   9.546  -1.093  0.00  0.00    +0.001 A 
ATOM     13  C   LIG    1       -2.867  10.148  -1.076  0.00  0.00    +0.000 A 
ATOM     14  C   LIG    1       -3.996   9.410  -0.769  0.00  0.00    +0.001 A 
ATOM     15  C   LIG    1       -3.886   8.066  -0.477  0.00  0.00    +0.010 A 
ENDBRANCH   7  10
ENDBRANCH   2   4
BRANCH   1  16
ATOM     16  C   LIG    1        1.073   4.426  -0.450  0.00  0.00    +0.091 C 
BRANCH  16  17
ATOM     17  C   LIG    1        0.615   4.729  -1.878  0.00  0.00    -0.060 C 
BRANCH  17  18
ATOM     18  N   LIG    1        0.986   6.122  -2.209  0.00  0.00    +0.380 N 
ATOM     19  H   LIG    1        0.789   6.720  -1.398  0.00  0.00    -0.082 HD
BRANCH  18  21
ATOM     20  C   LIG    1        2.745   5.395  -3.786  0.00  0.00    -0.017 C 
ATOM     21  C   LIG    1        2.428   6.199  -2.524  0.00  0.00    -0.082 C 
ENDBRANCH  18  21
BRANCH  18  22
ATOM     22  C   LIG    1        0.190   6.596  -3.361  0.00  0.00    -0.082 C 
ATOM     23  C   LIG    1        0.490   8.079  -3.592  0.00  0.00    -0.017 C 
ENDBRANCH  18  22
ENDBRANCH  17  18
ENDBRANCH  16  17
ENDBRANCH   1  16
BRANCH   1  24
ATOM     24  C   LIG    1        1.578   1.999   0.090  0.00  0.00    +0.192 C 
BRANCH  24  25
ATOM     25  C   LIG    1        2.440   2.257   1.299  0.00  0.00    -0.018 A 
ATOM     26  C   LIG    1        2.689   3.555   1.706  0.00  0.00    +0.009 A 
ATOM     27  C   LIG    1        3.475   3.792   2.817  0.00  0.00    +0.038 A 
ATOM     28  C   LIG    1        4.022   2.731   3.518  0.00  0.00    +0.123 A 
ATOM     29  F   LIG    1        4.795   2.962   4.601  0.00  0.00    -0.205 F 
ATOM     30  C   LIG    1        3.776   1.431   3.107  0.00  0.00    +0.038 A 
ATOM     31  C   LIG    1        2.986   1.196   1.998  0.00  0.00    +0.009 A 
ENDBRANCH  24  25
BRANCH  24  32
ATOM     32  C   LIG    1        2.447   1.921  -1.139  0.00  0.00    +0.238 C 
ATOM     33  N   LIG    1        3.414   0.985  -1.222  0.00  0.00    -0.311 N 
ATOM     34  H   LIG    1        3.550   0.362  -0.491  0.00  0.00    +0.149 HD
ATOM     35  O   LIG    1        2.277   2.699  -2.052  0.00  0.00    -0.273 OA
BRANCH  33  36
ATOM     36  C   LIG    1        4.258   0.909  -2.416  0.00  0.00    +0.073 C 
ATOM     37  C   LIG    1        3.556   0.068  -3.485  0.00  0.00    +0.022 C 
ATOM     38  C   LIG    1        4.439  -0.011  -4.732  0.00  0.00    +0.002 C 
ATOM     39  C   LIG    1        5.776  -0.660  -4.370  0.00  0.00    +0.000 C 
ATOM     40  C   LIG    1        6.478   0.180  -3.302  0.00  0.00    +0.002 C 
ATOM     41  C   LIG    1        5.596   0.260  -2.054  0.00  0.00    +0.022 C 
ENDBRANCH  33  36
ENDBRANCH  24  32
ENDBRANCH   1  24
TORSDOF 11
