REMARK  Name = ZINC05857871
REMARK                            x       y       z     vdW  Elec       q    Type
REMARK                         _______ _______ _______ _____ _____    ______ ____
ROOT
ATOM      1  C   LIG    1       -2.861  -2.465   0.278  0.00  0.00    +0.154 A 
ATOM      2  C   LIG    1       -3.011  -3.799  -0.089  0.00  0.00    +0.020 A 
ATOM      3  C   LIG    1       -4.293  -4.282  -0.339  0.00  0.00    +0.017 A 
ATOM      4  C   LIG    1       -4.845  -5.587  -0.736  0.00  0.00    +0.011 A 
ATOM      5  C   LIG    1       -4.274  -6.829  -1.010  0.00  0.00    +0.056 A 
ATOM      6  C   LIG    1       -5.083  -7.891  -1.367  0.00  0.00    +0.122 A 
ATOM      7  C   LIG    1       -6.461  -7.722  -1.454  0.00  0.00    +0.048 A 
ATOM      8  C   LIG    1       -7.033  -6.498  -1.186  0.00  0.00    +0.030 A 
ATOM      9  C   LIG    1       -6.235  -5.417  -0.824  0.00  0.00    +0.048 A 
ATOM     10  N   LIG    1       -6.536  -4.103  -0.506  0.00  0.00    -0.353 N 
ATOM     11  H   LIG    1       -7.430  -3.728  -0.491  0.00  0.00    +0.166 HD
ATOM     12  C   LIG    1       -5.386  -3.406  -0.212  0.00  0.00    +0.066 A 
ATOM     13  C   LIG    1       -5.143  -2.083   0.160  0.00  0.00    +0.137 A 
ATOM     14  N   LIG    1       -3.920  -1.667   0.393  0.00  0.00    -0.246 NA
ENDROOT
BRANCH   1  15
ATOM     15  C   LIG    1       -1.511  -1.929   0.548  0.00  0.00    +0.358 C 
ATOM     16  O   LIG    1       -0.551  -2.675   0.549  0.00  0.00    -0.243 OA
BRANCH  15  17
ATOM     17  O   LIG    1       -1.343  -0.615   0.793  0.00  0.00    -0.460 OA
BRANCH  17  19
ATOM     18  C   LIG    1       -0.019   1.342   1.301  0.00  0.00    +0.048 C 
ATOM     19  C   LIG    1       -0.010  -0.167   1.047  0.00  0.00    +0.229 C 
ENDBRANCH  17  19
ENDBRANCH  15  17
ENDBRANCH   1  15
BRANCH   2  20
ATOM     20  C   LIG    1       -1.812  -4.703  -0.214  0.00  0.00    +0.197 C 
BRANCH  20  21
ATOM     21  O   LIG    1       -1.446  -5.191   1.078  0.00  0.00    -0.378 OA
ATOM     22  C   LIG    1       -0.313  -6.061   1.072  0.00  0.00    +0.194 C 
ENDBRANCH  20  21
ENDBRANCH   2  20
BRANCH   6  23
ATOM     23  O   LIG    1       -4.530  -9.104  -1.636  0.00  0.00    -0.487 OA
BRANCH  23  24
ATOM     24  C   LIG    1       -5.423 -10.159  -1.999  0.00  0.00    +0.264 C 
BRANCH  24  25
ATOM     25  C   LIG    1       -4.636 -11.418  -2.257  0.00  0.00    -0.010 A 
ATOM     26  C   LIG    1       -4.161 -11.688  -3.527  0.00  0.00    +0.007 A 
ATOM     27  C   LIG    1       -3.439 -12.842  -3.763  0.00  0.00    +0.000 A 
ATOM     28  C   LIG    1       -3.192 -13.727  -2.730  0.00  0.00    +0.000 A 
ATOM     29  C   LIG    1       -3.666 -13.457  -1.460  0.00  0.00    +0.000 A 
ATOM     30  C   LIG    1       -4.385 -12.300  -1.223  0.00  0.00    +0.007 A 
ENDBRANCH  24  25
ENDBRANCH  23  24
ENDBRANCH   6  23
TORSDOF 8
