REMARK  Name = ZINC06511233
REMARK                            x       y       z     vdW  Elec       q    Type
REMARK                         _______ _______ _______ _____ _____    ______ ____
ROOT
ATOM      1  N   LIG    1        0.149  -0.176  -0.966  0.00  0.00    -0.281 N 
ATOM      2  C   LIG    1        1.471  -0.010  -1.168  0.00  0.00    +0.264 C 
ATOM      3  O   LIG    1        1.921  -0.024  -2.298  0.00  0.00    -0.268 OA
ENDROOT
BRANCH   2   4
ATOM      4  C   LIG    1        2.367   0.190  -0.025  0.00  0.00    +0.102 A 
ATOM      5  C   LIG    1        3.737   0.349  -0.086  0.00  0.00    +0.033 A 
ATOM      6  C   LIG    1        4.197   0.509   1.220  0.00  0.00    +0.028 A 
ATOM      7  C   LIG    1        3.106   0.445   2.059  0.00  0.00    +0.047 A 
ATOM      8  N   LIG    1        1.990   0.256   1.298  0.00  0.00    -0.351 N 
ATOM      9  H   LIG    1        1.083   0.179   1.632  0.00  0.00    +0.166 HD
BRANCH   7  10
ATOM     10  C   LIG    1        3.138   0.568   3.532  0.00  0.00    -0.002 A 
ATOM     11  C   LIG    1        1.957   0.467   4.269  0.00  0.00    +0.010 A 
ATOM     12  C   LIG    1        1.995   0.577   5.644  0.00  0.00    +0.001 A 
ATOM     13  C   LIG    1        3.198   0.798   6.291  0.00  0.00    +0.000 A 
ATOM     14  C   LIG    1        4.371   0.905   5.565  0.00  0.00    +0.001 A 
ATOM     15  C   LIG    1        4.348   0.791   4.190  0.00  0.00    +0.010 A 
ENDBRANCH   7  10
ENDBRANCH   2   4
BRANCH   1  16
ATOM     16  C   LIG    1       -0.378  -0.276   0.397  0.00  0.00    +0.107 C 
BRANCH  16  17
ATOM     17  C   LIG    1        0.145  -1.556   1.053  0.00  0.00    +0.000 C 
BRANCH  17  18
ATOM     18  C   LIG    1       -0.403  -1.658   2.478  0.00  0.00    -0.077 C 
BRANCH  18  19
ATOM     19  N   LIG    1        0.202  -2.836   3.135  0.00  0.00    +0.379 N 
ATOM     20  H   LIG    1        0.214  -3.619   2.470  0.00  0.00    -0.082 HD
BRANCH  19  22
ATOM     21  C   LIG    1        2.300  -3.840   3.889  0.00  0.00    -0.017 C 
ATOM     22  C   LIG    1        1.590  -2.530   3.541  0.00  0.00    -0.082 C 
ENDBRANCH  19  22
BRANCH  19  23
ATOM     23  C   LIG    1       -0.597  -3.222   4.317  0.00  0.00    -0.082 C 
ATOM     24  C   LIG    1       -1.849  -3.962   3.842  0.00  0.00    -0.017 C 
ENDBRANCH  19  23
ENDBRANCH  18  19
ENDBRANCH  17  18
ENDBRANCH  16  17
ENDBRANCH   1  16
BRANCH   1  25
ATOM     25  C   LIG    1       -0.761  -0.258  -2.111  0.00  0.00    +0.192 C 
BRANCH  25  26
ATOM     26  C   LIG    1       -1.620   0.980  -2.159  0.00  0.00    -0.018 A 
ATOM     27  C   LIG    1       -2.012   1.595  -0.985  0.00  0.00    +0.009 A 
ATOM     28  C   LIG    1       -2.795   2.732  -1.028  0.00  0.00    +0.038 A 
ATOM     29  C   LIG    1       -3.196   3.250  -2.248  0.00  0.00    +0.123 A 
ATOM     30  F   LIG    1       -3.966   4.359  -2.291  0.00  0.00    -0.205 F 
ATOM     31  C   LIG    1       -2.808   2.630  -3.423  0.00  0.00    +0.038 A 
ATOM     32  C   LIG    1       -2.020   1.496  -3.378  0.00  0.00    +0.009 A 
ENDBRANCH  25  26
BRANCH  25  33
ATOM     33  C   LIG    1       -1.640  -1.474  -1.968  0.00  0.00    +0.238 C 
ATOM     34  N   LIG    1       -2.562  -1.754  -2.911  0.00  0.00    -0.311 N 
ATOM     35  H   LIG    1       -2.660  -1.173  -3.681  0.00  0.00    +0.149 HD
ATOM     36  O   LIG    1       -1.518  -2.201  -1.005  0.00  0.00    -0.273 OA
BRANCH  34  37
ATOM     37  C   LIG    1       -3.417  -2.936  -2.772  0.00  0.00    +0.073 C 
ATOM     38  C   LIG    1       -2.688  -4.160  -3.330  0.00  0.00    +0.022 C 
ATOM     39  C   LIG    1       -3.580  -5.394  -3.184  0.00  0.00    +0.002 C 
ATOM     40  C   LIG    1       -4.881  -5.177  -3.960  0.00  0.00    +0.000 C 
ATOM     41  C   LIG    1       -5.610  -3.953  -3.402  0.00  0.00    +0.002 C 
ATOM     42  C   LIG    1       -4.717  -2.719  -3.547  0.00  0.00    +0.022 C 
ENDBRANCH  34  37
ENDBRANCH  25  33
ENDBRANCH   1  25
TORSDOF 12
