REMARK  Name = ZINC06812943
REMARK                            x       y       z     vdW  Elec       q    Type
REMARK                         _______ _______ _______ _____ _____    ______ ____
ROOT
ATOM      1  C   LIG    1        4.109   1.992  -2.567  0.00  0.00    +0.133 C 
ATOM      2  C   LIG    1        4.273   2.691  -1.389  0.00  0.00    +0.071 C 
ATOM      3  C   LIG    1        4.020   2.182   0.012  0.00  0.00    +0.144 C 
ATOM      4  N   LIG    1        4.334   3.286   0.923  0.00  0.00    -0.283 N 
ATOM      5  C   LIG    1        4.731   4.348   0.203  0.00  0.00    +0.288 C 
ATOM      6  O   LIG    1        5.062   5.420   0.668  0.00  0.00    -0.266 OA
ATOM      7  C   LIG    1        4.708   4.019  -1.248  0.00  0.00    +0.249 C 
ATOM      8  O   LIG    1        5.013   4.770  -2.157  0.00  0.00    -0.282 OA
ENDROOT
BRANCH   1  13
ATOM      9  C   LIG    1        2.851  -3.618  -2.432  0.00  0.00    +0.044 C 
ATOM     10  C   LIG    1        3.181  -2.148  -2.467  0.00  0.00    -0.050 A 
ATOM     11  C   LIG    1        2.413  -1.288  -3.233  0.00  0.00    +0.004 A 
ATOM     12  C   LIG    1        2.708   0.058  -3.271  0.00  0.00    +0.012 A 
ATOM     13  C   LIG    1        3.787   0.554  -2.532  0.00  0.00    +0.017 A 
ATOM     14  C   LIG    1        4.561  -0.321  -1.765  0.00  0.00    +0.012 A 
ATOM     15  C   LIG    1        4.250  -1.664  -1.733  0.00  0.00    +0.004 A 
ENDBRANCH   1  13
BRANCH   3  16
ATOM     16  C   LIG    1        2.574   1.784   0.163  0.00  0.00    -0.022 A 
ATOM     17  C   LIG    1        1.604   2.754   0.329  0.00  0.00    +0.006 A 
ATOM     18  C   LIG    1        0.278   2.389   0.466  0.00  0.00    +0.004 A 
ATOM     19  C   LIG    1       -0.078   1.054   0.439  0.00  0.00    -0.045 A 
ATOM     20  C   LIG    1        0.892   0.083   0.275  0.00  0.00    +0.004 A 
ATOM     21  C   LIG    1        2.219   0.448   0.137  0.00  0.00    +0.006 A 
BRANCH  19  22
ATOM     22  C   LIG    1       -1.524   0.656   0.590  0.00  0.00    +0.013 C 
ATOM     23  C   LIG    1       -1.681  -0.237   1.822  0.00  0.00    +0.012 C 
ATOM     24  C   LIG    1       -1.974  -0.110  -0.656  0.00  0.00    +0.012 C 
ENDBRANCH  19  22
ENDBRANCH   3  16
BRANCH   1  25
ATOM     25  O   LIG    1        4.245   2.624  -3.752  0.00  0.00    -0.506 OA
ATOM     26  H   LIG    1        4.462   3.587  -3.592  0.00  0.00    +0.292 HD
ENDBRANCH   1  25
BRANCH   4  27
ATOM     27  C   LIG    1        4.232   3.238   2.384  0.00  0.00    +0.111 C 
BRANCH  27  28
ATOM     28  C   LIG    1        5.562   2.766   2.973  0.00  0.00    +0.047 C 
BRANCH  28  29
ATOM     29  C   LIG    1        5.455   2.717   4.499  0.00  0.00    +0.161 C 
BRANCH  29  30
ATOM     30  O   LIG    1        6.697   2.275   5.049  0.00  0.00    -0.383 OA
ATOM     31  C   LIG    1        6.705   2.194   6.476  0.00  0.00    +0.193 C 
ENDBRANCH  29  30
ENDBRANCH  28  29
ENDBRANCH  27  28
ENDBRANCH   4  27
TORSDOF 8
