REMARK  Name = ZINC07997390
REMARK                            x       y       z     vdW  Elec       q    Type
REMARK                         _______ _______ _______ _____ _____    ______ ____
ROOT
ATOM      1  C   LIG    1        7.764  -2.970   4.002  0.00  0.00    +0.142 A 
ATOM      2  C   LIG    1        8.637  -2.074   4.632  0.00  0.00    +0.060 A 
ATOM      3  C   LIG    1        8.972  -0.793   4.010  0.00  0.00    +0.022 A 
ATOM      4  C   LIG    1        9.824   0.037   4.668  0.00  0.00    +0.093 A 
ATOM      5  C   LIG    1       10.357  -0.349   5.914  0.00  0.00    +0.337 A 
ATOM      6  O   LIG    1       10.046  -1.525   6.481  0.00  0.00    -0.422 OA
ATOM      7  O   LIG    1       11.119   0.405   6.492  0.00  0.00    -0.245 OA
ATOM      8  C   LIG    1        9.205  -2.398   5.882  0.00  0.00    +0.146 A 
ATOM      9  C   LIG    1        8.902  -3.603   6.489  0.00  0.00    +0.094 A 
ATOM     10  C   LIG    1        8.038  -4.500   5.872  0.00  0.00    +0.142 A 
ATOM     11  O   LIG    1        7.575  -5.717   6.222  0.00  0.00    -0.463 OA
ATOM     12  C   LIG    1        6.731  -6.197   5.290  0.00  0.00    +0.196 A 
ATOM     13  C   LIG    1        6.613  -5.326   4.281  0.00  0.00    +0.053 A 
ATOM     14  C   LIG    1        7.463  -4.179   4.628  0.00  0.00    +0.063 A 
ENDROOT
BRANCH   1  15
ATOM     15  O   LIG    1        7.214  -2.664   2.801  0.00  0.00    -0.491 OA
BRANCH  15  16
ATOM     16  C   LIG    1        5.967  -1.966   2.818  0.00  0.00    +0.229 C 
BRANCH  16  17
ATOM     17  C   LIG    1        5.507  -1.710   1.381  0.00  0.00    +0.041 C 
BRANCH  17  18
ATOM     18  C   LIG    1        4.171  -0.963   1.399  0.00  0.00    +0.008 C 
BRANCH  18  19
ATOM     19  C   LIG    1        3.711  -0.707  -0.038  0.00  0.00    +0.035 C 
BRANCH  19  23
ATOM     20  C   LIG    1       -0.017   1.378   0.010  0.00  0.00    +0.000 A 
ATOM     21  C   LIG    1        1.171   2.086   0.002  0.00  0.00    +0.000 A 
ATOM     22  C   LIG    1        2.377   1.411  -0.013  0.00  0.00    +0.003 A 
ATOM     23  C   LIG    1        2.396   0.029  -0.020  0.00  0.00    -0.047 A 
ATOM     24  C   LIG    1        1.208  -0.679  -0.012  0.00  0.00    +0.003 A 
ATOM     25  C   LIG    1        0.002  -0.004   0.002  0.00  0.00    +0.000 A 
ENDBRANCH  19  23
ENDBRANCH  18  19
ENDBRANCH  17  18
ENDBRANCH  16  17
ENDBRANCH  15  16
ENDBRANCH   1  15
TORSDOF 6
