REMARK  Name = ZINC08036050
REMARK                            x       y       z     vdW  Elec       q    Type
REMARK                         _______ _______ _______ _____ _____    ______ ____
ROOT
ATOM      1  C   LIG    1        8.362   0.658  -2.399  0.00  0.00    +0.000 C 
ENDROOT
BRANCH   1   2
ATOM      2  C   LIG    1        9.241  -0.269  -3.239  0.00  0.00    +0.000 C 
BRANCH   2   3
ATOM      3  C   LIG    1       10.677   0.260  -3.250  0.00  0.00    -0.000 C 
BRANCH   3   4
ATOM      4  C   LIG    1       11.556  -0.667  -4.091  0.00  0.00    -0.000 C 
BRANCH   4   5
ATOM      5  C   LIG    1       12.992  -0.138  -4.102  0.00  0.00    -0.000 C 
BRANCH   5   6
ATOM      6  C   LIG    1       13.871  -1.065  -4.943  0.00  0.00    -0.000 C 
BRANCH   6   7
ATOM      7  C   LIG    1       15.307  -0.536  -4.954  0.00  0.00    -0.000 C 
BRANCH   7   8
ATOM      8  C   LIG    1       16.186  -1.463  -5.795  0.00  0.00    -0.000 C 
BRANCH   8   9
ATOM      9  C   LIG    1       17.621  -0.934  -5.805  0.00  0.00    -0.000 C 
BRANCH   9  11
ATOM     10  C   LIG    1       19.936  -1.332  -6.657  0.00  0.00    +0.004 C 
ATOM     11  C   LIG    1       18.501  -1.861  -6.646  0.00  0.00    -0.003 C 
ENDBRANCH   9  11
ENDBRANCH   8   9
ENDBRANCH   7   8
ENDBRANCH   6   7
ENDBRANCH   5   6
ENDBRANCH   4   5
ENDBRANCH   3   4
ENDBRANCH   2   3
ENDBRANCH   1   2
BRANCH   1  12
ATOM     12  C   LIG    1        6.927   0.129  -2.388  0.00  0.00    +0.000 C 
BRANCH  12  13
ATOM     13  C   LIG    1        6.047   1.056  -1.547  0.00  0.00    +0.000 C 
BRANCH  13  14
ATOM     14  C   LIG    1        4.612   0.527  -1.536  0.00  0.00    +0.009 C 
BRANCH  14  15
ATOM     15  C   LIG    1        3.732   1.454  -0.695  0.00  0.00    +0.096 C 
BRANCH  15  16
ATOM     16  C   LIG    1        2.318   0.933  -0.685  0.00  0.00    +0.213 C 
ATOM     17  N   LIG    1        1.362   1.593  -0.002  0.00  0.00    -0.313 N 
ATOM     18  H   LIG    1        1.583   2.404   0.482  0.00  0.00    +0.149 HD
ATOM     19  O   LIG    1        2.042  -0.081  -1.290  0.00  0.00    -0.276 OA
BRANCH  17  20
ATOM     20  C   LIG    1       -0.013   1.086   0.008  0.00  0.00    +0.067 C 
ATOM     21  C   LIG    1       -0.729   1.579   1.267  0.00  0.00    +0.027 C 
ATOM     22  C   LIG    1       -0.753   1.593  -1.232  0.00  0.00    +0.027 C 
ENDBRANCH  17  20
ENDBRANCH  15  16
ENDBRANCH  14  15
ENDBRANCH  13  14
ENDBRANCH  12  13
ENDBRANCH   1  12
TORSDOF 15
