REMARK  Name = ZINC06094108
REMARK                            x       y       z     vdW  Elec       q    Type
REMARK                         _______ _______ _______ _____ _____    ______ ____
ROOT
ATOM      1  C   LIG    1        0.049   1.399   0.635  0.00  0.00    +0.016 A 
ATOM      2  C   LIG    1        1.194   2.113   0.359  0.00  0.00    +0.029 A 
ATOM      3  C   LIG    1        2.405   1.442   0.156  0.00  0.00    +0.077 A 
ATOM      4  C   LIG    1        2.424   0.035   0.239  0.00  0.00    +0.034 A 
ATOM      5  C   LIG    1        3.827  -0.358  -0.022  0.00  0.00    +0.152 C 
ATOM      6  C   LIG    1        4.527   0.922  -0.243  0.00  0.00    +0.241 C 
ATOM      7  N   LIG    1        4.334  -1.570  -0.050  0.00  0.00    -0.175 NA
ATOM      8  C   LIG    1        1.262  -0.669   0.518  0.00  0.00    +0.026 A 
ATOM      9  N   LIG    1        3.656   1.891  -0.126  0.00  0.00    -0.211 NA
ATOM     10  C   LIG    1        0.077   0.015   0.715  0.00  0.00    +0.014 A 
ATOM     11  I   LIG    1       -1.682  -1.043   1.136  0.00  0.00    -0.044 I 
ENDROOT
BRANCH   6  12
ATOM     12  O   LIG    1        5.845   1.068  -0.520  0.00  0.00    -0.491 OA
ATOM     13  H   LIG    1        6.396   0.313  -0.585  0.00  0.00    +0.294 HD
ENDBRANCH   6  12
BRANCH   7  14
ATOM     14  N   LIG    1        3.558  -2.596   0.049  0.00  0.00    -0.218 N 
ATOM     15  H   LIG    1        2.595  -2.477   0.059  0.00  0.00    +0.176 HD
BRANCH  14  16
ATOM     16  C   LIG    1        4.085  -3.833   0.138  0.00  0.00    +0.147 C 
ATOM     17  S   LIG    1        3.055  -5.195   0.269  0.00  0.00    -0.017 S 
BRANCH  16  18
ATOM     18  N   LIG    1        5.422  -3.999   0.123  0.00  0.00    -0.339 N 
ATOM     19  H   LIG    1        5.801  -4.889   0.187  0.00  0.00    +0.144 HD
ATOM     20  H   LIG    1        6.006  -3.227   0.048  0.00  0.00    +0.144 HD
ENDBRANCH  16  18
ENDBRANCH  14  16
ENDBRANCH   7  14
TORSDOF 4
