REMARK  Name = ZINC06864978
REMARK                            x       y       z     vdW  Elec       q    Type
REMARK                         _______ _______ _______ _____ _____    ______ ____
ROOT
ATOM      1  S   LIG    1        5.179   0.292  -0.048  0.00  0.00    +0.095 S 
ATOM      2  O   LIG    1        6.227  -0.667  -0.089  0.00  0.00    -0.148 OA
ATOM      3  O   LIG    1        5.077   1.264   0.984  0.00  0.00    -0.148 OA
ENDROOT
BRANCH   1  12
ATOM      4  C   LIG    1       -0.016   1.357   0.009  0.00  0.00    +0.001 A 
ATOM      5  C   LIG    1        1.169   2.091   0.002  0.00  0.00    +0.001 A 
ATOM      6  C   LIG    1        2.378   1.468  -0.013  0.00  0.00    +0.010 A 
ATOM      7  C   LIG    1        2.438   0.064  -0.021  0.00  0.00    +0.009 A 
ATOM      8  C   LIG    1        1.233  -0.683  -0.013  0.00  0.00    -0.016 A 
ATOM      9  C   LIG    1        1.292  -2.087  -0.021  0.00  0.00    +0.008 A 
ATOM     10  C   LIG    1        2.502  -2.709  -0.036  0.00  0.00    +0.003 A 
ATOM     11  C   LIG    1        3.687  -1.976  -0.043  0.00  0.00    +0.029 A 
ATOM     12  C   LIG    1        3.668  -0.615  -0.037  0.00  0.00    +0.119 A 
ATOM     13  C   LIG    1        0.002  -0.004   0.002  0.00  0.00    +0.008 A 
ENDBRANCH   1  12
BRANCH   1  14
ATOM     14  N   LIG    1        5.241   1.124  -1.478  0.00  0.00    -0.108 N 
ATOM     15  H   LIG    1        4.504   1.044  -2.126  0.00  0.00    +0.211 HD
BRANCH  14  16
ATOM     16  N   LIG    1        6.342   1.940  -1.766  0.00  0.00    -0.173 N 
ATOM     17  H   LIG    1        7.068   2.018  -1.128  0.00  0.00    +0.289 HD
ATOM     18  C   LIG    1        6.390   2.593  -2.889  0.00  0.00    +0.362 C 
BRANCH  18  19
ATOM     19  N   LIG    1        7.481   3.402  -3.174  0.00  0.00    -0.290 N 
ATOM     20  H   LIG    1        7.518   3.889  -4.012  0.00  0.00    +0.255 HD
ATOM     21  H   LIG    1        8.208   3.480  -2.536  0.00  0.00    +0.255 HD
ENDBRANCH  18  19
BRANCH  18  22
ATOM     22  N   LIG    1        5.351   2.481  -3.802  0.00  0.00    -0.290 N 
ATOM     23  H   LIG    1        5.387   2.969  -4.640  0.00  0.00    +0.255 HD
ATOM     24  H   LIG    1        4.589   1.916  -3.602  0.00  0.00    +0.255 HD
ENDBRANCH  18  22
ENDBRANCH  14  16
ENDBRANCH   1  14
TORSDOF 5
