REMARK  Name = ZINC06733272
REMARK                            x       y       z     vdW  Elec       q    Type
REMARK                         _______ _______ _______ _____ _____    ______ ____
ROOT
ATOM      1  N   LIG    1       -2.598  -4.317  -0.284  0.00  0.00    -0.201 N 
ATOM      2  C   LIG    1       -1.289  -4.437  -0.569  0.00  0.00    +0.265 C 
ATOM      3  C   LIG    1       -0.634  -3.140  -0.315  0.00  0.00    +0.089 C 
ATOM      4  C   LIG    1       -1.609  -2.293   0.127  0.00  0.00    +0.089 C 
ATOM      5  O   LIG    1       -0.740  -5.443  -0.972  0.00  0.00    -0.269 OA
ATOM      6  C   LIG    1       -2.864  -3.068   0.137  0.00  0.00    +0.265 C 
ATOM      7  O   LIG    1       -3.955  -2.649   0.469  0.00  0.00    -0.269 OA
ENDROOT
BRANCH   1  11
ATOM      8  C   LIG    1       -5.415  -7.370  -0.651  0.00  0.00    -0.018 A 
ATOM      9  C   LIG    1       -4.081  -7.609  -0.977  0.00  0.00    +0.010 A 
ATOM     10  C   LIG    1       -3.151  -6.598  -0.855  0.00  0.00    +0.024 A 
ATOM     11  C   LIG    1       -3.544  -5.342  -0.408  0.00  0.00    +0.045 A 
ATOM     12  C   LIG    1       -4.872  -5.104  -0.077  0.00  0.00    +0.024 A 
ATOM     13  C   LIG    1       -5.806  -6.109  -0.203  0.00  0.00    +0.010 A 
BRANCH   8  17
ATOM     14  C   LIG    1       -8.288 -10.482  -1.028  0.00  0.00    +0.000 A 
ATOM     15  C   LIG    1       -8.680  -9.233  -0.582  0.00  0.00    +0.001 A 
ATOM     16  C   LIG    1       -7.752  -8.219  -0.458  0.00  0.00    +0.008 A 
ATOM     17  C   LIG    1       -6.418  -8.456  -0.782  0.00  0.00    -0.018 A 
ATOM     18  C   LIG    1       -6.029  -9.715  -1.236  0.00  0.00    +0.008 A 
ATOM     19  C   LIG    1       -6.965 -10.723  -1.353  0.00  0.00    +0.001 A 
ENDBRANCH   8  17
ENDBRANCH   1  11
BRANCH   3  20
ATOM     20  S   LIG    1        1.072  -2.760  -0.537  0.00  0.00    -0.117 S 
BRANCH  20  21
ATOM     21  C   LIG    1        1.330  -2.924  -2.325  0.00  0.00    +0.102 C 
BRANCH  21  22
ATOM     22  C   LIG    1        2.784  -2.589  -2.664  0.00  0.00    +0.167 C 
BRANCH  22  23
ATOM     23  O   LIG    1        3.003  -2.779  -4.063  0.00  0.00    -0.394 OA
ATOM     24  H   LIG    1        3.921  -2.651  -4.338  0.00  0.00    +0.209 HD
ENDBRANCH  22  23
ENDBRANCH  21  22
ENDBRANCH  20  21
ENDBRANCH   3  20
BRANCH   4  25
ATOM     25  S   LIG    1       -1.409  -0.605   0.589  0.00  0.00    -0.117 S 
BRANCH  25  26
ATOM     26  C   LIG    1       -1.781  -0.589   2.365  0.00  0.00    +0.102 C 
BRANCH  26  27
ATOM     27  C   LIG    1       -1.628   0.835   2.905  0.00  0.00    +0.167 C 
BRANCH  27  28
ATOM     28  O   LIG    1       -1.859   0.836   4.315  0.00  0.00    -0.394 OA
ATOM     29  H   LIG    1       -1.845   1.717   4.715  0.00  0.00    +0.209 HD
ENDBRANCH  27  28
ENDBRANCH  26  27
ENDBRANCH  25  26
ENDBRANCH   4  25
TORSDOF 10
