REMARK  Name = ZINC08379230
REMARK                            x       y       z     vdW  Elec       q    Type
REMARK                         _______ _______ _______ _____ _____    ______ ____
ROOT
ATOM      1  C   LIG    1        2.120   5.420   0.025  0.00  0.00    -0.016 A 
ATOM      2  C   LIG    1        2.260   4.030   0.012  0.00  0.00    +0.016 A 
ATOM      3  C   LIG    1        1.141   3.235   0.013  0.00  0.00    -0.001 A 
ATOM      4  C   LIG    1       -0.134   3.798   0.027  0.00  0.00    +0.058 A 
ATOM      5  N   LIG    1       -1.256   2.971   0.030  0.00  0.00    -0.268 N 
ATOM      6  H   LIG    1       -2.134   3.384   0.039  0.00  0.00    +0.156 HD
ATOM      7  C   LIG    1       -1.180   1.634   0.016  0.00  0.00    +0.305 C 
ATOM      8  N   LIG    1       -0.011   0.966   0.007  0.00  0.00    -0.290 N 
ATOM      9  H   LIG    1        0.002  -0.004   0.002  0.00  0.00    +0.151 HD
ATOM     10  O   LIG    1       -2.214   0.994   0.017  0.00  0.00    -0.252 OA
ATOM     11  C   LIG    1       -0.273   5.182   0.039  0.00  0.00    +0.063 A 
ATOM     12 CL   LIG    1       -1.856   5.895   0.055  0.00  0.00    -0.082 Cl
ATOM     13  C   LIG    1        1.245   1.730  -0.001  0.00  0.00    +0.063 C 
ATOM     14  C   LIG    1        2.026   1.326  -1.247  0.00  0.00    +0.031 C 
ATOM     15  C   LIG    1        2.202  -0.193  -1.278  0.00  0.00    +0.002 C 
ATOM     16  C   LIG    1        2.988  -0.640  -0.044  0.00  0.00    +0.000 C 
ATOM     17  C   LIG    1        2.233  -0.215   1.218  0.00  0.00    +0.002 C 
ATOM     18  C   LIG    1        2.057   1.304   1.219  0.00  0.00    +0.031 C 
ATOM     19  C   LIG    1        0.847   5.988   0.038  0.00  0.00    +0.030 A 
ENDROOT
BRANCH   1  25
ATOM     20  C   LIG    1        4.595   5.715   0.015  0.00  0.00    +0.009 A 
ATOM     21  C   LIG    1        5.711   6.520   0.008  0.00  0.00    +0.015 A 
ATOM     22  C   LIG    1        5.569   7.911   0.020  0.00  0.00    +0.059 A 
ATOM     23  C   LIG    1        4.294   8.482   0.033  0.00  0.00    +0.015 A 
ATOM     24  C   LIG    1        3.179   7.676   0.035  0.00  0.00    +0.009 A 
ATOM     25  C   LIG    1        3.321   6.287   0.023  0.00  0.00    -0.018 A 
BRANCH  22  26
ATOM     26  C   LIG    1        6.766   8.774   0.018  0.00  0.00    +0.337 C 
ATOM     27  O   LIG    1        6.642   9.983   0.029  0.00  0.00    -0.245 OA
BRANCH  26  28
ATOM     28  O   LIG    1        7.995   8.223   0.005  0.00  0.00    -0.477 OA
ATOM     29  H   LIG    1        8.090   7.291  -0.003  0.00  0.00    +0.295 HD
ENDBRANCH  26  28
ENDBRANCH  22  26
ENDBRANCH   1  25
TORSDOF 3
