REMARK  Name = ZINC08034829
REMARK                            x       y       z     vdW  Elec       q    Type
REMARK                         _______ _______ _______ _____ _____    ______ ____
ROOT
ATOM      1  C   LIG    1       -0.712   2.558  -0.973  0.00  0.00    +0.358 C 
ATOM      2  N   LIG    1       -0.285   3.631  -0.323  0.00  0.00    -0.291 N 
ATOM      3  H   LIG    1        0.295   3.525   0.517  0.00  0.00    +0.255 HD
ATOM      4  H   LIG    1       -0.531   4.562  -0.659  0.00  0.00    +0.255 HD
ENDROOT
BRANCH   1   5
ATOM      5  N   LIG    1       -1.491   2.629  -2.104  0.00  0.00    -0.291 N 
ATOM      6  H   LIG    1       -1.751   3.494  -2.460  0.00  0.00    +0.255 HD
ATOM      7  H   LIG    1       -1.780   1.816  -2.546  0.00  0.00    +0.255 HD
ENDBRANCH   1   5
BRANCH   1   8
ATOM      8  N   LIG    1       -0.344   1.333  -0.468  0.00  0.00    -0.207 N 
ATOM      9  H   LIG    1       -0.634   0.519  -0.910  0.00  0.00    +0.282 HD
BRANCH   8  10
ATOM     10  N   LIG    1        0.429   1.262   0.655  0.00  0.00    -0.198 NA
ATOM     11  H   LIG    1        1.287   1.780   0.537  0.00  0.00    +0.159 HD
ATOM     12  H   LIG    1        0.617   0.302   0.905  0.00  0.00    +0.159 HD
ENDBRANCH   8  10
ENDBRANCH   1   8
TORSDOF 3
