REMARK  Name = ZINC06256449
REMARK                            x       y       z     vdW  Elec       q    Type
REMARK                         _______ _______ _______ _____ _____    ______ ____
ROOT
ATOM      1  C   LIG    1       -0.649   1.470   0.074  0.00  0.00    +0.044 C 
ATOM      2  C   LIG    1       -0.518  -0.031   0.054  0.00  0.00    -0.048 A 
ATOM      3  C   LIG    1       -0.694  -0.723  -1.129  0.00  0.00    +0.005 A 
ATOM      4  C   LIG    1       -0.574  -2.101  -1.154  0.00  0.00    +0.028 A 
ATOM      5  C   LIG    1       -0.278  -2.789   0.010  0.00  0.00    +0.063 A 
ATOM      6  N   LIG    1       -0.197  -4.174  -0.209  0.00  0.00    -0.353 N 
ATOM      7  H   LIG    1       -0.353  -4.469  -1.119  0.00  0.00    +0.166 HD
ATOM      8  C   LIG    1        0.077  -5.167   0.708  0.00  0.00    +0.052 A 
ATOM      9  C   LIG    1        0.335  -5.050   2.041  0.00  0.00    +0.096 A 
ATOM     10  C   LIG    1        0.391  -3.889   2.838  0.00  0.00    +0.251 A 
ATOM     11  O   LIG    1        0.644  -4.072   4.015  0.00  0.00    -0.268 OA
ATOM     12  N   LIG    1        0.202  -2.604   2.477  0.00  0.00    -0.321 N 
ATOM     13  H   LIG    1        0.286  -1.949   3.187  0.00  0.00    +0.169 HD
ATOM     14  C   LIG    1       -0.100  -2.092   1.204  0.00  0.00    +0.066 A 
ATOM     15  C   LIG    1       -0.216  -0.712   1.221  0.00  0.00    +0.031 A 
ENDROOT
BRANCH   8  16
ATOM     16  C   LIG    1        0.095  -6.543   0.173  0.00  0.00    -0.002 A 
ATOM     17  C   LIG    1       -0.585  -7.564   0.841  0.00  0.00    +0.010 A 
ATOM     18  C   LIG    1       -0.565  -8.848   0.335  0.00  0.00    +0.001 A 
ATOM     19  C   LIG    1        0.126  -9.124  -0.831  0.00  0.00    +0.000 A 
ATOM     20  C   LIG    1        0.802  -8.117  -1.498  0.00  0.00    +0.001 A 
ATOM     21  C   LIG    1        0.786  -6.829  -1.007  0.00  0.00    +0.010 A 
ENDBRANCH   8  16
TORSDOF 1
