REMARK  Name = ZINC05932684
REMARK                            x       y       z     vdW  Elec       q    Type
REMARK                         _______ _______ _______ _____ _____    ______ ____
ROOT
ATOM      1  C   LIG    1       -2.540   2.138   0.023  0.00  0.00    +0.059 C 
ATOM      2  C   LIG    1       -3.417   2.280  -1.044  0.00  0.00    +0.057 C 
ATOM      3  C   LIG    1       -4.747   1.901  -0.537  0.00  0.00    +0.252 C 
ATOM      4  N   LIG    1       -4.636   1.559   0.758  0.00  0.00    -0.248 N 
ATOM      5  H   LIG    1       -5.373   1.271   1.318  0.00  0.00    +0.158 HD
ATOM      6  O   LIG    1       -5.777   1.899  -1.183  0.00  0.00    -0.270 OA
ATOM      7  C   LIG    1       -3.360   1.666   1.166  0.00  0.00    +0.252 C 
ATOM      8  O   LIG    1       -2.949   1.421   2.281  0.00  0.00    -0.270 OA
ENDROOT
BRANCH   1  12
ATOM      9  C   LIG    1        1.852   4.543   0.009  0.00  0.00    +0.149 C 
ATOM     10  N   LIG    1        0.872   3.454   0.012  0.00  0.00    -0.349 N 
ATOM     11  C   LIG    1       -0.474   3.626   0.026  0.00  0.00    +0.095 A 
ATOM     12  C   LIG    1       -1.094   2.395   0.019  0.00  0.00    +0.013 A 
ATOM     13  C   LIG    1       -0.017   1.389   0.010  0.00  0.00    +0.010 A 
ATOM     14  C   LIG    1        0.002  -0.004   0.002  0.00  0.00    +0.049 A 
ATOM     15  C   LIG    1        1.211  -0.671  -0.013  0.00  0.00    +0.124 A 
ATOM     16  F   LIG    1        1.234  -2.021  -0.021  0.00  0.00    -0.205 F 
ATOM     17  C   LIG    1        2.402   0.042  -0.021  0.00  0.00    +0.040 A 
ATOM     18  C   LIG    1        2.396   1.421  -0.014  0.00  0.00    +0.029 A 
ATOM     19  C   LIG    1        1.188   2.110   0.002  0.00  0.00    +0.050 A 
ENDBRANCH   1  12
BRANCH   2  20
ATOM     20  C   LIG    1       -3.083   2.723  -2.414  0.00  0.00    -0.010 A 
ATOM     21  C   LIG    1       -2.625   4.024  -2.638  0.00  0.00    +0.009 A 
ATOM     22  C   LIG    1       -2.309   4.433  -3.917  0.00  0.00    +0.002 A 
ATOM     23  C   LIG    1       -2.453   3.563  -4.982  0.00  0.00    +0.023 A 
ATOM     24  C   LIG    1       -2.913   2.268  -4.771  0.00  0.00    +0.028 A 
ATOM     25  C   LIG    1       -3.229   1.845  -3.489  0.00  0.00    +0.031 A 
BRANCH  24  26
ATOM     26  N   LIG    1       -3.058   1.394  -5.850  0.00  0.00    -0.341 N 
ATOM     27  H   LIG    1       -3.379   0.490  -5.703  0.00  0.00    +0.146 HD
BRANCH  26  28
ATOM     28  C   LIG    1       -2.725   1.841  -7.205  0.00  0.00    +0.135 C 
BRANCH  28  29
ATOM     29  C   LIG    1       -2.971   0.700  -8.194  0.00  0.00    +0.157 C 
BRANCH  29  30
ATOM     30  O   LIG    1       -2.150  -0.418  -7.846  0.00  0.00    -0.388 OA
ATOM     31  H   LIG    1       -1.202  -0.229  -7.858  0.00  0.00    +0.210 HD
ENDBRANCH  29  30
BRANCH  29  32
ATOM     32  C   LIG    1       -2.622   1.167  -9.608  0.00  0.00    +0.188 C 
BRANCH  32  33
ATOM     33  O   LIG    1       -2.961   0.142 -10.545  0.00  0.00    -0.392 OA
ATOM     34  H   LIG    1       -2.767   0.370 -11.465  0.00  0.00    +0.210 HD
ENDBRANCH  32  33
ENDBRANCH  29  32
ENDBRANCH  28  29
ENDBRANCH  26  28
ENDBRANCH  24  26
ENDBRANCH   2  20
TORSDOF 8
