REMARK  Name = ZINC05998832
REMARK                            x       y       z     vdW  Elec       q    Type
REMARK                         _______ _______ _______ _____ _____    ______ ____
ROOT
ATOM      1  C   LIG    1        0.937  -2.637  -2.389  0.00  0.00    +0.248 C 
ATOM      2  N   LIG    1        0.811  -1.956  -1.233  0.00  0.00    -0.309 N 
ATOM      3  H   LIG    1        0.770  -2.434  -0.390  0.00  0.00    +0.149 HD
ATOM      4  O   LIG    1        0.989  -2.037  -3.446  0.00  0.00    -0.270 OA
ENDROOT
BRANCH   1  11
ATOM      5  C   LIG    1        1.136  -4.819  -3.577  0.00  0.00    +0.134 A 
ATOM      6  C   LIG    1        1.211  -6.201  -3.551  0.00  0.00    +0.070 A 
ATOM      7  C   LIG    1        1.151  -6.875  -2.338  0.00  0.00    +0.047 A 
ATOM      8  C   LIG    1        1.021  -6.163  -1.145  0.00  0.00    +0.062 A 
ATOM      9 CL   LIG    1        0.946  -7.016   0.365  0.00  0.00    -0.082 Cl
ATOM     10  C   LIG    1        0.952  -4.800  -1.159  0.00  0.00    +0.038 A 
ATOM     11  C   LIG    1        1.011  -4.107  -2.373  0.00  0.00    +0.080 A 
BRANCH   7  12
ATOM     12  N   LIG    1        1.220  -8.264  -2.312  0.00  0.00    -0.357 N 
ATOM     13  H   LIG    1        1.310  -8.760  -3.141  0.00  0.00    +0.142 HD
ATOM     14  H   LIG    1        1.178  -8.736  -1.466  0.00  0.00    +0.142 HD
ENDBRANCH   7  12
BRANCH   5  16
ATOM     15  C   LIG    1        1.316  -4.947  -5.942  0.00  0.00    +0.277 C 
ATOM     16  O   LIG    1        1.188  -4.155  -4.759  0.00  0.00    -0.494 OA
ENDBRANCH   5  16
ENDBRANCH   1  11
BRANCH   2  17
ATOM     17  C   LIG    1        0.738  -0.493  -1.249  0.00  0.00    +0.070 C 
ATOM     18  C   LIG    1        0.002  -0.004   0.002  0.00  0.00    +0.004 C 
ATOM     19  C   LIG    1       -0.019   1.526   0.010  0.00  0.00    -0.077 C 
ATOM     20  N   LIG    1        1.373   2.025   0.024  0.00  0.00    +0.382 N 
ATOM     21  H   LIG    1        1.864   1.620   0.830  0.00  0.00    -0.081 HD
ATOM     22  C   LIG    1        2.070   1.619  -1.215  0.00  0.00    -0.077 C 
ATOM     23  C   LIG    1        2.153   0.091  -1.260  0.00  0.00    +0.004 C 
BRANCH  20  24
ATOM     24  C   LIG    1        1.380   3.497   0.147  0.00  0.00    -0.043 C 
BRANCH  24  25
ATOM     25  C   LIG    1        2.796   3.958   0.378  0.00  0.00    -0.064 A 
ATOM     26  C   LIG    1        3.289   4.058   1.666  0.00  0.00    +0.004 A 
ATOM     27  C   LIG    1        4.589   4.475   1.879  0.00  0.00    +0.038 A 
ATOM     28  C   LIG    1        5.395   4.804   0.802  0.00  0.00    +0.123 A 
ATOM     29  F   LIG    1        6.665   5.217   1.010  0.00  0.00    -0.205 F 
ATOM     30  C   LIG    1        4.899   4.708  -0.487  0.00  0.00    +0.038 A 
ATOM     31  C   LIG    1        3.600   4.285  -0.698  0.00  0.00    +0.004 A 
ENDBRANCH  24  25
ENDBRANCH  20  24
ENDBRANCH   2  17
TORSDOF 6
