REMARK  Name = ZINC06580932
REMARK                            x       y       z     vdW  Elec       q    Type
REMARK                         _______ _______ _______ _____ _____    ______ ____
ROOT
ATOM      1  C   LIG    1       -1.157  -2.144   0.003  0.00  0.00    +0.083 A 
ATOM      2  C   LIG    1       -1.248  -0.780   0.010  0.00  0.00    +0.138 A 
ATOM      3  C   LIG    1        0.002  -0.004   0.002  0.00  0.00    +0.059 A 
ATOM      4  C   LIG    1       -0.017   1.392   0.010  0.00  0.00    +0.015 A 
ATOM      5  C   LIG    1        1.171   2.089   0.002  0.00  0.00    +0.001 A 
ATOM      6  C   LIG    1        2.381   1.410  -0.014  0.00  0.00    +0.004 A 
ATOM      7  C   LIG    1        2.413   0.032  -0.021  0.00  0.00    +0.047 A 
ATOM      8  C   LIG    1        1.227  -0.690  -0.013  0.00  0.00    +0.143 A 
ATOM      9  O   LIG    1        1.241  -2.041  -0.021  0.00  0.00    -0.422 OA
ATOM     10  C   LIG    1        0.105  -2.757  -0.013  0.00  0.00    +0.344 A 
ATOM     11  O   LIG    1        0.173  -3.974  -0.020  0.00  0.00    -0.245 OA
ENDROOT
BRANCH   2  12
ATOM     12  O   LIG    1       -2.451  -0.162   0.025  0.00  0.00    -0.506 OA
ATOM     13  H   LIG    1       -2.505   0.936   0.031  0.00  0.00    +0.292 HD
ENDBRANCH   2  12
BRANCH   1  14
ATOM     14  C   LIG    1       -2.407  -2.986   0.010  0.00  0.00    +0.081 C 
BRANCH  14  18
ATOM     15  C   LIG    1       -3.626  -3.762  -4.010  0.00  0.00    +0.000 A 
ATOM     16  C   LIG    1       -2.760  -4.629  -3.371  0.00  0.00    +0.000 A 
ATOM     17  C   LIG    1       -2.365  -4.378  -2.070  0.00  0.00    +0.004 A 
ATOM     18  C   LIG    1       -2.837  -3.260  -1.408  0.00  0.00    -0.043 A 
ATOM     19  C   LIG    1       -3.707  -2.395  -2.046  0.00  0.00    +0.004 A 
ATOM     20  C   LIG    1       -4.098  -2.644  -3.348  0.00  0.00    +0.000 A 
ENDBRANCH  14  18
ENDBRANCH   1  14
TORSDOF 3
