REMARK  Name = ZINC05883020
REMARK                            x       y       z     vdW  Elec       q    Type
REMARK                         _______ _______ _______ _____ _____    ______ ____
ROOT
ATOM      1  S   LIG    1        3.682  -2.227  -0.536  0.00  0.00    +0.075 S 
ATOM      2  O   LIG    1        2.356  -2.732  -0.452  0.00  0.00    -0.150 OA
ATOM      3  O   LIG    1        4.770  -2.828   0.151  0.00  0.00    -0.150 OA
ENDROOT
BRANCH   1   4
ATOM      4  C   LIG    1        4.109  -2.216  -2.245  0.00  0.00    +0.111 A 
ATOM      5  C   LIG    1        3.117  -2.159  -3.206  0.00  0.00    +0.029 A 
ATOM      6  C   LIG    1        3.453  -2.150  -4.547  0.00  0.00    +0.004 A 
ATOM      7  C   LIG    1        4.781  -2.198  -4.927  0.00  0.00    +0.033 A 
ATOM      8  C   LIG    1        5.773  -2.253  -3.966  0.00  0.00    +0.123 A 
ATOM      9  C   LIG    1        5.438  -2.258  -2.625  0.00  0.00    +0.061 A 
BRANCH   8  10
ATOM     10  N   LIG    1        7.195  -2.304  -4.374  0.00  0.00    +0.006 N 
ATOM     11  O   LIG    1        7.489  -2.297  -5.546  0.00  0.00    -0.130 OA
BRANCH  10  12
ATOM     12  O   LIG    1        8.063  -2.353  -3.534  0.00  0.00    -0.396 OA
ATOM     13  H   LIG    1        7.836  -2.358  -2.625  0.00  0.00    +0.329 HD
ENDBRANCH  10  12
ENDBRANCH   8  10
ENDBRANCH   1   4
BRANCH   1  14
ATOM     14  N   LIG    1        3.620  -0.649  -0.036  0.00  0.00    -0.192 N 
BRANCH  14  18
ATOM     15  C   LIG    1       -0.022   1.368   0.043  0.00  0.00    +0.000 A 
ATOM     16  C   LIG    1        1.013   1.843  -0.742  0.00  0.00    +0.002 A 
ATOM     17  C   LIG    1        2.222   1.176  -0.770  0.00  0.00    +0.025 A 
ATOM     18  C   LIG    1        2.398   0.028  -0.010  0.00  0.00    +0.052 A 
ATOM     19  C   LIG    1        1.356  -0.447   0.777  0.00  0.00    +0.025 A 
ATOM     20  C   LIG    1        0.150   0.224   0.801  0.00  0.00    +0.002 A 
ENDBRANCH  14  18
BRANCH  14  21
ATOM     21  C   LIG    1        4.846   0.037   0.378  0.00  0.00    +0.251 C 
BRANCH  21  22
ATOM     22  C   LIG    1        4.992  -0.055   1.875  0.00  0.00    +0.324 C 
ATOM     23  O   LIG    1        4.150  -0.640   2.535  0.00  0.00    -0.249 OA
BRANCH  22  24
ATOM     24  O   LIG    1        5.953   0.455   2.426  0.00  0.00    -0.479 OA
ATOM     25  H   LIG    1        6.600   0.904   1.919  0.00  0.00    +0.295 HD
ENDBRANCH  22  24
ENDBRANCH  21  22
ENDBRANCH  14  21
ENDBRANCH   1  14
TORSDOF 8
