REMARK  Name = ZINC07909008
REMARK                            x       y       z     vdW  Elec       q    Type
REMARK                         _______ _______ _______ _____ _____    ______ ____
ROOT
ATOM      1  N   LIG    1        0.688  -0.476  -1.203  0.00  0.00    -0.304 N 
ATOM      2  H   LIG    1        0.175  -0.710  -1.993  0.00  0.00    +0.150 HD
ATOM      3  C   LIG    1        2.031  -0.587  -1.215  0.00  0.00    +0.261 C 
ATOM      4  O   LIG    1        2.674  -0.294  -0.225  0.00  0.00    -0.269 OA
ENDROOT
BRANCH   3   5
ATOM      5  C   LIG    1        2.719  -1.061  -2.425  0.00  0.00    +0.103 A 
ATOM      6  C   LIG    1        4.062  -1.219  -2.556  0.00  0.00    +0.040 A 
ATOM      7  C   LIG    1        4.315  -1.692  -3.867  0.00  0.00    +0.000 A 
ATOM      8  C   LIG    1        5.485  -2.028  -4.560  0.00  0.00    +0.010 A 
ATOM      9  C   LIG    1        5.408  -2.465  -5.850  0.00  0.00    +0.001 A 
ATOM     10  C   LIG    1        4.178  -2.580  -6.486  0.00  0.00    +0.002 A 
ATOM     11  C   LIG    1        3.014  -2.255  -5.827  0.00  0.00    +0.026 A 
ATOM     12  C   LIG    1        3.067  -1.808  -4.509  0.00  0.00    +0.047 A 
ATOM     13  N   LIG    1        2.103  -1.423  -3.607  0.00  0.00    -0.351 N 
ATOM     14  H   LIG    1        1.148  -1.405  -3.774  0.00  0.00    +0.166 HD
ENDBRANCH   3   5
BRANCH   1  16
ATOM     15  C   LIG    1       -0.019   1.526   0.010  0.00  0.00    +0.033 C 
ATOM     16  C   LIG    1        0.002  -0.004   0.002  0.00  0.00    +0.100 C 
BRANCH  16  17
ATOM     17  C   LIG    1       -1.412  -0.526   0.013  0.00  0.00    -0.027 A 
ATOM     18  C   LIG    1       -2.141  -0.569  -1.161  0.00  0.00    +0.005 A 
ATOM     19  C   LIG    1       -3.438  -1.047  -1.151  0.00  0.00    +0.000 A 
ATOM     20  C   LIG    1       -4.005  -1.483   0.032  0.00  0.00    +0.000 A 
ATOM     21  C   LIG    1       -3.275  -1.441   1.205  0.00  0.00    +0.000 A 
ATOM     22  C   LIG    1       -1.977  -0.966   1.195  0.00  0.00    +0.005 A 
ENDBRANCH  16  17
ENDBRANCH   1  16
TORSDOF 3
