REMARK  Name = ZINC06483864
REMARK                            x       y       z     vdW  Elec       q    Type
REMARK                         _______ _______ _______ _____ _____    ______ ____
ROOT
ATOM      1  C   LIG    1        2.981  -1.693  -1.778  0.00  0.00    +0.162 A 
ATOM      2  C   LIG    1        1.720  -1.579  -1.218  0.00  0.00    +0.053 A 
ATOM      3  C   LIG    1        1.310  -0.379  -0.662  0.00  0.00    -0.038 A 
ATOM      4  C   LIG    1        2.162   0.710  -0.664  0.00  0.00    -0.012 A 
ATOM      5  C   LIG    1        1.484   1.891  -0.002  0.00  0.00    +0.148 C 
ATOM      6  C   LIG    1       -0.019   1.539   0.011  0.00  0.00    +0.027 C 
ATOM      7  C   LIG    1        3.424   0.601  -1.223  0.00  0.00    +0.055 A 
ATOM      8  C   LIG    1        0.002  -0.004   0.002  0.00  0.00    +0.042 C 
ATOM      9  C   LIG    1        3.838  -0.597  -1.781  0.00  0.00    +0.162 A 
ENDROOT
BRANCH   1  11
ATOM     10  C   LIG    1        2.448  -3.955  -2.285  0.00  0.00    +0.277 C 
ATOM     11  O   LIG    1        3.381  -2.873  -2.324  0.00  0.00    -0.491 OA
ENDBRANCH   1  11
BRANCH   5  12
ATOM     12  O   LIG    1        1.966   2.055   1.333  0.00  0.00    -0.387 OA
ATOM     13  H   LIG    1        2.905   2.277   1.388  0.00  0.00    +0.210 HD
ENDBRANCH   5  12
BRANCH   9  14
ATOM     14  O   LIG    1        5.078  -0.702  -2.329  0.00  0.00    -0.491 OA
ATOM     15  C   LIG    1        5.903   0.465  -2.296  0.00  0.00    +0.277 C 
ENDBRANCH   9  14
BRANCH   6  16
ATOM     16  C   LIG    1       -0.691   2.067   1.280  0.00  0.00    +0.010 C 
BRANCH  16  17
ATOM     17  C   LIG    1       -2.173   1.690   1.267  0.00  0.00    -0.014 C 
ATOM     18  C   LIG    1       -2.876   2.413   0.115  0.00  0.00    -0.015 C 
ATOM     19  C   LIG    1       -4.369   2.080   0.144  0.00  0.00    -0.078 C 
ATOM     20  N   LIG    1       -4.935   2.529   1.434  0.00  0.00    +0.382 N 
ATOM     21  H   LIG    1       -4.740   3.530   1.553  0.00  0.00    -0.081 HD
ATOM     22  C   LIG    1       -4.314   1.782   2.549  0.00  0.00    -0.078 C 
ATOM     23  C   LIG    1       -2.819   2.107   2.591  0.00  0.00    -0.015 C 
BRANCH  20  24
ATOM     24  C   LIG    1       -6.398   2.321   1.442  0.00  0.00    -0.043 C 
BRANCH  24  25
ATOM     25  C   LIG    1       -7.026   3.258   0.442  0.00  0.00    -0.064 A 
ATOM     26  C   LIG    1       -7.415   4.526   0.832  0.00  0.00    +0.002 A 
ATOM     27  C   LIG    1       -7.987   5.386  -0.086  0.00  0.00    +0.000 A 
ATOM     28  C   LIG    1       -8.179   4.976  -1.392  0.00  0.00    +0.000 A 
ATOM     29  C   LIG    1       -7.795   3.706  -1.781  0.00  0.00    +0.000 A 
ATOM     30  C   LIG    1       -7.218   2.847  -0.864  0.00  0.00    +0.002 A 
ENDBRANCH  24  25
ENDBRANCH  20  24
ENDBRANCH  16  17
ENDBRANCH   6  16
TORSDOF 7
