REMARK  Name = ZINC05934968
REMARK                            x       y       z     vdW  Elec       q    Type
REMARK                         _______ _______ _______ _____ _____    ______ ____
ROOT
ATOM      1  C   LIG    1       -0.017   1.374   0.010  0.00  0.00    +0.001 A 
ATOM      2  C   LIG    1        1.174   2.086   0.002  0.00  0.00    +0.004 A 
ATOM      3  C   LIG    1        2.387   1.432  -0.016  0.00  0.00    +0.047 A 
ATOM      4  C   LIG    1        2.430   0.041  -0.026  0.00  0.00    +0.139 A 
ATOM      5  C   LIG    1        1.223  -0.675  -0.012  0.00  0.00    +0.065 A 
ATOM      6  C   LIG    1        1.282  -2.153  -0.006  0.00  0.00    +0.204 A 
ATOM      7  C   LIG    1        2.604  -2.744   0.275  0.00  0.00    +0.106 A 
ATOM      8  C   LIG    1        2.740  -4.106   0.566  0.00  0.00    +0.131 A 
ATOM      9  C   LIG    1        3.997  -4.621   0.838  0.00  0.00    +0.046 A 
ATOM     10  C   LIG    1        5.105  -3.792   0.819  0.00  0.00    +0.007 A 
ATOM     11  C   LIG    1        4.980  -2.449   0.527  0.00  0.00    +0.047 A 
ATOM     12  C   LIG    1        3.731  -1.906   0.248  0.00  0.00    +0.143 A 
ATOM     13  O   LIG    1        0.299  -2.840  -0.220  0.00  0.00    -0.286 OA
ATOM     14  O   LIG    1        3.618  -0.596  -0.051  0.00  0.00    -0.454 OA
ATOM     15  C   LIG    1        0.002  -0.004   0.002  0.00  0.00    +0.015 A 
ENDROOT
BRANCH   8  16
ATOM     16  O   LIG    1        1.651  -4.914   0.581  0.00  0.00    -0.506 OA
ATOM     17  H   LIG    1        1.451  -5.321  -0.273  0.00  0.00    +0.292 HD
ENDBRANCH   8  16
TORSDOF 1
