REMARK  Name = ZINC06241125
REMARK                            x       y       z     vdW  Elec       q    Type
REMARK                         _______ _______ _______ _____ _____    ______ ____
ROOT
ATOM      1  C   LIG    1        4.848  -4.106   0.247  0.00  0.00    +0.141 C 
ENDROOT
BRANCH   1   5
ATOM      2  N   LIG    1        3.622  -0.651  -0.036  0.00  0.00    -0.269 N 
ATOM      3  H   LIG    1        4.452  -0.156  -0.120  0.00  0.00    +0.156 HD
ATOM      4  C   LIG    1        3.645  -1.995   0.058  0.00  0.00    +0.304 C 
ATOM      5  N   LIG    1        4.823  -2.644   0.144  0.00  0.00    -0.295 N 
ATOM      6  H   LIG    1        5.654  -2.144   0.139  0.00  0.00    +0.151 HD
ATOM      7  O   LIG    1        2.603  -2.622   0.065  0.00  0.00    -0.252 OA
BRANCH   2  11
ATOM      8  C   LIG    1       -0.015   1.381   0.031  0.00  0.00    +0.000 A 
ATOM      9  C   LIG    1        0.140   0.219   0.765  0.00  0.00    +0.002 A 
ATOM     10  C   LIG    1        1.344  -0.457   0.744  0.00  0.00    +0.023 A 
ATOM     11  C   LIG    1        2.400   0.031  -0.014  0.00  0.00    +0.035 A 
ATOM     12  C   LIG    1        2.241   1.198  -0.750  0.00  0.00    +0.023 A 
ATOM     13  C   LIG    1        1.034   1.870  -0.725  0.00  0.00    +0.002 A 
ENDBRANCH   2  11
ENDBRANCH   1   5
BRANCH   1  14
ATOM     14  C   LIG    1        6.276  -4.579   0.330  0.00  0.00    -0.030 A 
ATOM     15  C   LIG    1        6.975  -4.873  -0.826  0.00  0.00    +0.007 A 
ATOM     16  C   LIG    1        8.285  -5.308  -0.750  0.00  0.00    +0.029 A 
ATOM     17  C   LIG    1        8.897  -5.447   0.482  0.00  0.00    +0.105 A 
ATOM     18  C   LIG    1        8.198  -5.151   1.638  0.00  0.00    +0.029 A 
ATOM     19  C   LIG    1        6.889  -4.713   1.561  0.00  0.00    +0.007 A 
BRANCH  17  20
ATOM     20  S   LIG    1       10.566  -6.001   0.579  0.00  0.00    +0.056 S 
ATOM     21  O   LIG    1       10.821  -6.732  -0.613  0.00  0.00    -0.153 OA
ATOM     22  O   LIG    1       10.731  -6.569   1.871  0.00  0.00    -0.153 OA
BRANCH  20  23
ATOM     23  N   LIG    1       11.532  -4.657   0.526  0.00  0.00    -0.204 NA
ATOM     24  H   LIG    1       11.240  -3.869   0.042  0.00  0.00    +0.144 HD
ATOM     25  H   LIG    1       12.390  -4.658   0.978  0.00  0.00    +0.144 HD
ENDBRANCH  20  23
ENDBRANCH  17  20
ENDBRANCH   1  14
TORSDOF 5
