REMARK  Name = ZINC05958016
REMARK                            x       y       z     vdW  Elec       q    Type
REMARK                         _______ _______ _______ _____ _____    ______ ____
ROOT
ATOM      1  C   LIG    1        1.376  -2.227   0.044  0.00  0.00    +0.035 C 
ENDROOT
BRANCH   1   2
ATOM      2  C   LIG    1        1.387  -0.753   0.356  0.00  0.00    -0.025 A 
ATOM      3  C   LIG    1        2.589  -0.083   0.487  0.00  0.00    +0.005 A 
ATOM      4  C   LIG    1        2.599   1.269   0.774  0.00  0.00    +0.000 A 
ATOM      5  C   LIG    1        1.407   1.952   0.929  0.00  0.00    +0.001 A 
ATOM      6  C   LIG    1        0.205   1.284   0.798  0.00  0.00    +0.020 A 
ATOM      7  C   LIG    1        0.194  -0.070   0.511  0.00  0.00    +0.044 A 
ATOM      8 CL   LIG    1       -1.316  -0.911   0.346  0.00  0.00    -0.083 Cl
ENDBRANCH   1   2
BRANCH   1   9
ATOM      9  C   LIG    1        1.880  -2.450  -1.384  0.00  0.00    +0.071 C 
ATOM     10  C   LIG    1        3.349  -2.035  -1.477  0.00  0.00    +0.035 C 
ATOM     11  C   LIG    1        3.853  -2.258  -2.905  0.00  0.00    +0.003 C 
ATOM     12  C   LIG    1        3.022  -1.416  -3.876  0.00  0.00    +0.000 C 
ATOM     13  C   LIG    1        1.553  -1.831  -3.782  0.00  0.00    +0.003 C 
ATOM     14  C   LIG    1        1.049  -1.608  -2.355  0.00  0.00    +0.035 C 
BRANCH   9  15
ATOM     15  O   LIG    1        1.752  -3.832  -1.724  0.00  0.00    -0.388 OA
ATOM     16  H   LIG    1        2.054  -4.047  -2.617  0.00  0.00    +0.210 HD
ENDBRANCH   9  15
ENDBRANCH   1   9
BRANCH   1  17
ATOM     17  C   LIG    1        2.289  -2.963   1.027  0.00  0.00    -0.069 C 
BRANCH  17  19
ATOM     18  C   LIG    1        0.461  -3.574   2.492  0.00  0.00    -0.097 C 
ATOM     19  N   LIG    1        1.732  -2.826   2.389  0.00  0.00    +0.376 N 
ATOM     20  H   LIG    1        1.550  -1.833   2.576  0.00  0.00    -0.083 HD
ATOM     21  C   LIG    1        2.699  -3.333   3.384  0.00  0.00    -0.097 C 
ENDBRANCH  17  19
ENDBRANCH   1  17
TORSDOF 5
