REMARK  Name = ZINC06018439
REMARK                            x       y       z     vdW  Elec       q    Type
REMARK                         _______ _______ _______ _____ _____    ______ ____
ROOT
ATOM      1  C   LIG    1        0.347  -4.912   1.318  0.00  0.00    +0.128 C 
ATOM      2  C   LIG    1       -0.380  -4.109   2.406  0.00  0.00    +0.245 C 
ATOM      3  O   LIG    1        0.074  -2.756   2.378  0.00  0.00    -0.490 OA
ATOM      4  C   LIG    1        0.042  -2.083   1.203  0.00  0.00    +0.135 A 
ATOM      5  C   LIG    1        0.023  -0.698   1.201  0.00  0.00    +0.095 A 
ATOM      6  C   LIG    1        0.002  -0.004   0.002  0.00  0.00    +0.162 A 
ATOM      7  C   LIG    1       -0.006  -0.690  -1.215  0.00  0.00    +0.159 A 
ATOM      8  C   LIG    1        0.016  -2.069  -1.230  0.00  0.00    +0.064 A 
ATOM      9  C   LIG    1        0.035  -2.773  -0.021  0.00  0.00    +0.063 A 
ATOM     10  C   LIG    1        0.043  -4.244  -0.011  0.00  0.00    +0.177 C 
ATOM     11  O   LIG    1       -0.182  -4.890  -1.013  0.00  0.00    -0.291 OA
ENDROOT
BRANCH   1  15
ATOM     12  C   LIG    1        4.559  -4.868   2.039  0.00  0.00    +0.120 A 
ATOM     13  C   LIG    1        3.880  -6.076   1.962  0.00  0.00    +0.046 A 
ATOM     14  C   LIG    1        2.519  -6.087   1.728  0.00  0.00    +0.008 A 
ATOM     15  C   LIG    1        1.833  -4.897   1.572  0.00  0.00    -0.033 A 
ATOM     16  C   LIG    1        2.508  -3.692   1.643  0.00  0.00    +0.008 A 
ATOM     17  C   LIG    1        3.869  -3.675   1.881  0.00  0.00    +0.046 A 
BRANCH  12  19
ATOM     18  C   LIG    1        6.532  -3.575   2.335  0.00  0.00    +0.277 C 
ATOM     19  O   LIG    1        5.899  -4.854   2.268  0.00  0.00    -0.495 OA
ENDBRANCH  12  19
ENDBRANCH   1  15
BRANCH   6  20
ATOM     20  O   LIG    1       -0.016   1.353   0.009  0.00  0.00    -0.503 OA
ATOM     21  H   LIG    1        0.862   1.758   0.003  0.00  0.00    +0.292 HD
ENDBRANCH   6  20
BRANCH   7  22
ATOM     22  O   LIG    1       -0.030   0.002  -2.386  0.00  0.00    -0.503 OA
ATOM     23  H   LIG    1        0.847   0.213  -2.736  0.00  0.00    +0.292 HD
ENDBRANCH   7  22
TORSDOF 4
