REMARK  Name = ZINC05854773
REMARK                            x       y       z     vdW  Elec       q    Type
REMARK                         _______ _______ _______ _____ _____    ______ ____
ROOT
ATOM      1  C   UNK A  2       -1.226  -4.160   0.157  0.00  0.00    +0.147 C 
ATOM      2  C   UNK A  2       -0.207  -3.066  -0.103  0.00  0.00    +0.045 A 
ATOM      3  C   UNK A  2        1.126  -3.263  -0.032  0.00  0.00    -0.015 A 
ATOM      4  C   UNK A  2        1.779  -4.578   0.303  0.00  0.00    +0.069 C 
ATOM      5  C   UNK A  2        0.759  -5.712   0.117  0.00  0.00    +0.167 C 
ATOM      6  C   UNK A  2        1.321  -6.960   0.738  0.00  0.00    +0.237 C 
ATOM      7  O   UNK A  2        2.333  -7.446   0.281  0.00  0.00    -0.274 OA
ATOM      8  N   PRO A  1        0.744  -7.555   1.769  0.00  0.00    -0.288 N 
ATOM      9  CD  PRO A  1        1.308  -8.537   2.718  0.00  0.00    +0.109 C 
ATOM     10  CG  PRO A  1        0.783  -8.091   4.103  0.00  0.00    +0.021 C 
ATOM     11  CB  PRO A  1       -0.486  -7.262   3.801  0.00  0.00    +0.033 C 
ATOM     12  CA  PRO A  1       -0.618  -7.290   2.268  0.00  0.00    +0.162 C 
ATOM     13  C   PRO A  1       -1.096  -5.979   1.736  0.00  0.00    +0.237 C 
ATOM     14  O   PRO A  1       -2.071  -5.475   2.253  0.00  0.00    -0.274 OA
ATOM     15  C   UNK A  2        1.759  -1.992  -0.325  0.00  0.00    +0.003 A 
ATOM     16  C   UNK A  2        3.098  -1.598  -0.402  0.00  0.00    +0.014 A 
ATOM     17  C   UNK A  2        3.343  -0.283  -0.710  0.00  0.00    +0.046 A 
ATOM     18  C   UNK A  2        2.315   0.624  -0.937  0.00  0.00    +0.122 A 
ATOM     19  C   UNK A  2        0.977   0.257  -0.868  0.00  0.00    +0.071 A 
ATOM     20  C   UNK A  2        0.704  -1.073  -0.558  0.00  0.00    +0.050 A 
ATOM     21  N   UNK A  2       -0.469  -1.756  -0.414  0.00  0.00    -0.356 N 
ATOM     22  H   UNK A  2       -1.354  -1.373  -0.515  0.00  0.00    +0.166 HD
ATOM     23  N   UNK A  2       -0.514  -5.327   0.723  0.00  0.00    -0.276 N 
ENDROOT
BRANCH   1  27
ATOM     24  C   UNK A  2       -3.923  -3.979  -0.650  0.00  0.00    +0.038 C 
ATOM     25  C   UNK A  2       -3.536  -3.660   0.771  0.00  0.00    -0.078 C 
ATOM     26  C   UNK A  2       -4.599  -3.316   1.782  0.00  0.00    +0.038 C 
ATOM     27  C   UNK A  2       -2.276  -3.682   1.127  0.00  0.00    +0.000 C 
ENDBRANCH   1  27
BRANCH  18  28
ATOM     28  O   UNK A  2        2.629   1.912  -1.237  0.00  0.00    -0.495 OA
ATOM     29  C   UNK A  2        4.017   2.244  -1.297  0.00  0.00    +0.277 C 
ENDBRANCH  18  28
TORSDOF 2
