REMARK  Name = ZINC05932901
REMARK                            x       y       z     vdW  Elec       q    Type
REMARK                         _______ _______ _______ _____ _____    ______ ____
ROOT
ATOM      1  C   LIG    1        1.848   1.833  -1.209  0.00  0.00    +0.089 A 
ATOM      2  C   LIG    1        3.176   2.446  -1.138  0.00  0.00    +0.016 A 
ATOM      3  C   LIG    1        3.886   2.784  -2.295  0.00  0.00    +0.011 A 
ATOM      4  C   LIG    1        5.120   3.354  -2.186  0.00  0.00    +0.001 A 
ATOM      5  C   LIG    1        5.683   3.602  -0.937  0.00  0.00    +0.002 A 
ATOM      6  C   LIG    1        5.019   3.284   0.208  0.00  0.00    +0.028 A 
ATOM      7  C   LIG    1        3.744   2.696   0.136  0.00  0.00    +0.073 A 
ATOM      8  N   LIG    1        3.072   2.374   1.244  0.00  0.00    -0.243 NA
ATOM      9  C   LIG    1        1.876   1.829   1.211  0.00  0.00    +0.114 A 
ATOM     10  C   LIG    1        1.219   1.531  -0.001  0.00  0.00    +0.155 A 
ENDROOT
BRANCH   9  11
ATOM     11  C   LIG    1        1.199   1.510   2.490  0.00  0.00    +0.004 A 
ATOM     12  C   LIG    1       -0.185   1.637   2.600  0.00  0.00    +0.010 A 
ATOM     13  C   LIG    1       -0.810   1.333   3.792  0.00  0.00    +0.001 A 
ATOM     14  C   LIG    1       -0.066   0.915   4.880  0.00  0.00    +0.000 A 
ATOM     15  C   LIG    1        1.308   0.792   4.779  0.00  0.00    +0.001 A 
ATOM     16  C   LIG    1        1.944   1.087   3.590  0.00  0.00    +0.010 A 
ENDBRANCH   9  11
BRANCH   1  19
ATOM     17  N   LIG    1        1.397   0.357  -3.105  0.00  0.00    -0.304 N 
ATOM     18  H   LIG    1        1.961  -0.311  -2.687  0.00  0.00    +0.150 HD
ATOM     19  C   LIG    1        1.202   1.548  -2.503  0.00  0.00    +0.249 C 
ATOM     20  O   LIG    1        0.495   2.386  -3.028  0.00  0.00    -0.270 OA
BRANCH  17  21
ATOM     21  C   LIG    1        0.755   0.074  -4.391  0.00  0.00    +0.103 C 
BRANCH  21  22
ATOM     22  C   LIG    1        1.552  -0.969  -5.131  0.00  0.00    -0.027 A 
ATOM     23  C   LIG    1        2.102  -2.035  -4.444  0.00  0.00    +0.005 A 
ATOM     24  C   LIG    1        2.829  -2.994  -5.123  0.00  0.00    +0.000 A 
ATOM     25  C   LIG    1        3.015  -2.882  -6.489  0.00  0.00    +0.000 A 
ATOM     26  C   LIG    1        2.470  -1.814  -7.175  0.00  0.00    +0.000 A 
ATOM     27  C   LIG    1        1.739  -0.857  -6.496  0.00  0.00    +0.005 A 
ENDBRANCH  21  22
BRANCH  21  29
ATOM     28  C   LIG    1       -1.509   0.659  -3.511  0.00  0.00    +0.006 C 
ATOM     29  C   LIG    1       -0.664  -0.445  -4.150  0.00  0.00    +0.024 C 
ENDBRANCH  21  29
ENDBRANCH  17  21
ENDBRANCH   1  19
BRANCH  10  30
ATOM     30  O   LIG    1       -0.011   0.963   0.007  0.00  0.00    -0.504 OA
ATOM     31  H   LIG    1        0.002  -0.004   0.002  0.00  0.00    +0.292 HD
ENDBRANCH  10  30
TORSDOF 6
