REMARK  Name = ZINC08581203
REMARK                            x       y       z     vdW  Elec       q    Type
REMARK                         _______ _______ _______ _____ _____    ______ ____
ROOT
ATOM      1  C   LIG    1        3.930   7.541  -4.029  0.00  0.00    +0.155 C 
ATOM      2  N   LIG    1        3.849   6.099  -4.275  0.00  0.00    -0.281 N 
ATOM      3  C   LIG    1        3.481   5.254  -3.253  0.00  0.00    +0.148 A 
ATOM      4  C   LIG    1        3.407   3.888  -3.497  0.00  0.00    +0.171 A 
ATOM      5  N   LIG    1        3.033   3.291  -2.340  0.00  0.00    -0.225 NA
ATOM      6  C   LIG    1        2.869   4.201  -1.424  0.00  0.00    +0.114 A 
ATOM      7  C   LIG    1        3.727   3.404  -4.840  0.00  0.00    +0.284 A 
ATOM      8  N   LIG    1        4.080   4.305  -5.783  0.00  0.00    -0.262 N 
ATOM      9  C   LIG    1        4.405   3.845  -7.135  0.00  0.00    +0.157 C 
ATOM     10  O   LIG    1        3.677   2.216  -5.103  0.00  0.00    -0.265 OA
ATOM     11  N   LIG    1        3.140   5.431  -1.949  0.00  0.00    -0.328 N 
ATOM     12  H   LIG    1        3.097   6.303  -1.463  0.00  0.00    +0.168 HD
ATOM     13  C   LIG    1        4.136   5.616  -5.497  0.00  0.00    +0.333 A 
ATOM     14  O   LIG    1        4.458   6.394  -6.374  0.00  0.00    -0.246 OA
ENDROOT
BRANCH   6  15
ATOM     15  C   LIG    1        2.451   3.937  -0.001  0.00  0.00    +0.109 C 
BRANCH  15  16
ATOM     16  C   LIG    1        1.156   3.165   0.008  0.00  0.00    -0.040 A 
ATOM     17  C   LIG    1        1.175   1.783   0.000  0.00  0.00    +0.004 A 
ATOM     18  C   LIG    1       -0.013   1.076   0.008  0.00  0.00    +0.000 A 
ATOM     19  C   LIG    1       -1.219   1.751   0.017  0.00  0.00    +0.000 A 
ATOM     20  C   LIG    1       -1.238   3.133   0.030  0.00  0.00    +0.000 A 
ATOM     21  C   LIG    1       -0.050   3.840   0.023  0.00  0.00    +0.004 A 
ENDBRANCH  15  16
ENDBRANCH   6  15
TORSDOF 2
