REMARK  Name = ZINC07052275
REMARK                            x       y       z     vdW  Elec       q    Type
REMARK                         _______ _______ _______ _____ _____    ______ ____
ROOT
ATOM      1  N   LIG    1        2.467  -0.887  -6.179  0.00  0.00    -0.216 N 
ATOM      2  H   LIG    1        3.173  -0.863  -6.845  0.00  0.00    +0.174 HD
ENDROOT
BRANCH   1   3
ATOM      3  C   LIG    1        1.139  -0.687  -6.563  0.00  0.00    +0.048 A 
ATOM      4  C   LIG    1        0.264  -1.764  -6.629  0.00  0.00    +0.026 A 
ATOM      5  C   LIG    1       -1.049  -1.563  -7.008  0.00  0.00    +0.030 A 
ATOM      6  C   LIG    1       -1.492  -0.291  -7.322  0.00  0.00    +0.105 A 
ATOM      7  C   LIG    1       -0.624   0.783  -7.256  0.00  0.00    +0.030 A 
ATOM      8  C   LIG    1        0.688   0.590  -6.873  0.00  0.00    +0.026 A 
BRANCH   6   9
ATOM      9  S   LIG    1       -3.168  -0.039  -7.806  0.00  0.00    +0.056 S 
ATOM     10  O   LIG    1       -3.635  -1.281  -8.315  0.00  0.00    -0.153 OA
ATOM     11  O   LIG    1       -3.193   1.157  -8.572  0.00  0.00    -0.153 OA
BRANCH   9  12
ATOM     12  N   LIG    1       -4.035   0.263  -6.428  0.00  0.00    -0.204 NA
ATOM     13  H   LIG    1       -4.989   0.430  -6.482  0.00  0.00    +0.144 HD
ATOM     14  H   LIG    1       -3.590   0.273  -5.566  0.00  0.00    +0.144 HD
ENDBRANCH   9  12
ENDBRANCH   6   9
ENDBRANCH   1   3
BRANCH   1  15
ATOM     15  S   LIG    1        2.837  -1.165  -4.590  0.00  0.00    +0.072 S 
ATOM     16  O   LIG    1        1.988  -2.219  -4.153  0.00  0.00    -0.150 OA
ATOM     17  O   LIG    1        4.254  -1.246  -4.510  0.00  0.00    -0.150 OA
BRANCH  15  21
ATOM     18  C   LIG    1        1.621   2.523  -2.264  0.00  0.00    -0.042 A 
ATOM     19  C   LIG    1        0.758   1.447  -2.354  0.00  0.00    +0.006 A 
ATOM     20  C   LIG    1        1.129   0.320  -3.064  0.00  0.00    +0.029 A 
ATOM     21  C   LIG    1        2.363   0.271  -3.685  0.00  0.00    +0.109 A 
ATOM     22  C   LIG    1        3.226   1.347  -3.596  0.00  0.00    +0.029 A 
ATOM     23  C   LIG    1        2.852   2.475  -2.890  0.00  0.00    +0.006 A 
BRANCH  18  25
ATOM     24  C   LIG    1        1.203   4.962  -2.425  0.00  0.00    +0.015 C 
ATOM     25  C   LIG    1        1.216   3.751  -1.490  0.00  0.00    -0.013 C 
ATOM     26  C   LIG    1       -0.182   3.545  -0.903  0.00  0.00    +0.015 C 
ATOM     27  C   LIG    1        2.215   3.992  -0.357  0.00  0.00    +0.015 C 
ENDBRANCH  18  25
ENDBRANCH  15  21
ENDBRANCH   1  15
TORSDOF 6
