REMARK  Name = ZINC06091309
REMARK                            x       y       z     vdW  Elec       q    Type
REMARK                         _______ _______ _______ _____ _____    ______ ____
ROOT
ATOM      1  C   LIG    1        3.682   4.235   5.218  0.00  0.00    +0.027 A 
ATOM      2  C   LIG    1        2.800   4.829   4.327  0.00  0.00    +0.042 A 
ATOM      3 CL   LIG    1        2.777   6.556   4.151  0.00  0.00    -0.084 Cl
ATOM      4  C   LIG    1        1.942   4.049   3.582  0.00  0.00    +0.036 A 
ATOM      5  C   LIG    1        1.953   2.661   3.729  0.00  0.00    +0.080 A 
ATOM      6  C   LIG    1        2.833   2.058   4.637  0.00  0.00    +0.137 A 
ATOM      7  O   LIG    1        2.999   0.734   4.964  0.00  0.00    -0.487 OA
ATOM      8  C   LIG    1        3.532   0.722   6.277  0.00  0.00    +0.181 C 
ATOM      9  C   LIG    1        4.314  -0.464   6.774  0.00  0.00    +0.045 C 
ATOM     10  C   LIG    1        4.801  -0.147   8.199  0.00  0.00    +0.004 C 
ATOM     11  C   LIG    1        5.615   1.142   8.246  0.00  0.00    +0.001 C 
ATOM     12  C   LIG    1        4.846   2.323   7.624  0.00  0.00    +0.012 C 
ATOM     13  C   LIG    1        4.522   1.922   6.197  0.00  0.00    +0.063 C 
ATOM     14  C   LIG    1        3.710   2.870   5.369  0.00  0.00    +0.003 A 
ENDROOT
BRANCH   5  15
ATOM     15  C   LIG    1        1.033   1.828   2.930  0.00  0.00    +0.248 C 
ATOM     16  N   LIG    1        0.183   2.407   2.060  0.00  0.00    -0.310 N 
ATOM     17  H   LIG    1        0.175   3.372   1.959  0.00  0.00    +0.149 HD
ATOM     18  O   LIG    1        1.043   0.619   3.057  0.00  0.00    -0.270 OA
BRANCH  16  19
ATOM     19  C   LIG    1       -0.730   1.580   1.267  0.00  0.00    +0.060 C 
ATOM     20  C   LIG    1       -0.013   1.086   0.008  0.00  0.00    -0.056 C 
ATOM     21  N   LIG    1       -0.710   1.563  -1.205  0.00  0.00    +0.381 N 
ATOM     22  H   LIG    1       -0.210   1.220  -2.034  0.00  0.00    -0.082 HD
ATOM     23  C   LIG    1       -0.724   3.041  -1.232  0.00  0.00    -0.078 C 
ATOM     24  C   LIG    1       -1.462   3.591  -0.008  0.00  0.00    -0.014 C 
ATOM     25  C   LIG    1       -2.095   1.045  -1.230  0.00  0.00    -0.078 C 
ATOM     26  C   LIG    1       -2.888   1.548   0.000  0.00  0.00    -0.014 C 
ATOM     27  C   LIG    1       -1.947   2.415   0.848  0.00  0.00    +0.004 C 
ENDBRANCH  16  19
ENDBRANCH   5  15
TORSDOF 2
