REMARK  Name = ZINC08076607
REMARK                            x       y       z     vdW  Elec       q    Type
REMARK                         _______ _______ _______ _____ _____    ______ ____
ROOT
ATOM      1  C   LIG    1        1.238  -3.997  -1.575  0.00  0.00    +0.401 C 
ATOM      2  N   LIG    1        1.233  -4.506  -2.822  0.00  0.00    -0.281 N 
ATOM      3  H   LIG    1        1.217  -3.912  -3.589  0.00  0.00    +0.152 HD
ATOM      4  O   LIG    1        1.258  -4.742  -0.615  0.00  0.00    -0.226 OA
ENDROOT
BRANCH   1   5
ATOM      5  O   LIG    1        1.222  -2.663  -1.392  0.00  0.00    -0.446 OA
BRANCH   5   6
ATOM      6  C   LIG    1        1.229  -2.186  -0.021  0.00  0.00    +0.269 C 
BRANCH   6  12
ATOM      7  C   LIG    1        0.002  -0.004   0.002  0.00  0.00    +0.009 A 
ATOM      8  C   LIG    1       -0.017   1.378   0.010  0.00  0.00    +0.033 A 
ATOM      9  C   LIG    1        1.171   2.086   0.002  0.00  0.00    +0.122 A 
ATOM     10  C   LIG    1        2.377   1.411  -0.015  0.00  0.00    +0.033 A 
ATOM     11  C   LIG    1        2.396   0.029  -0.021  0.00  0.00    +0.009 A 
ATOM     12  C   LIG    1        1.208  -0.679  -0.013  0.00  0.00    -0.010 A 
BRANCH   9  13
ATOM     13  N   LIG    1        1.151   3.566   0.010  0.00  0.00    +0.006 N 
ATOM     14  O   LIG    1        0.088   4.160   0.023  0.00  0.00    -0.130 OA
BRANCH  13  15
ATOM     15  O   LIG    1        2.197   4.189   0.003  0.00  0.00    -0.396 OA
ATOM     16  H   LIG    1        3.015   3.732  -0.007  0.00  0.00    +0.329 HD
ENDBRANCH  13  15
ENDBRANCH   9  13
ENDBRANCH   6  12
ENDBRANCH   5   6
ENDBRANCH   1   5
BRANCH   2  17
ATOM     17  C   LIG    1        1.250  -5.958  -3.021  0.00  0.00    +0.107 C 
BRANCH  17  18
ATOM     18  C   LIG    1        1.240  -6.267  -4.520  0.00  0.00    +0.019 C 
BRANCH  18  19
ATOM     19  C   LIG    1        1.258  -7.783  -4.727  0.00  0.00    +0.000 C 
BRANCH  19  20
ATOM     20  C   LIG    1        1.248  -8.092  -6.226  0.00  0.00    -0.007 C 
BRANCH  20  21
ATOM     21  C   LIG    1        1.266  -9.608  -6.434  0.00  0.00    +0.013 C 
BRANCH  21  22
ATOM     22  C   LIG    1        1.132  -9.915  -7.903  0.00  0.00    +0.201 C 
ATOM     23  N   LIG    1       -0.081  -9.884  -8.490  0.00  0.00    -0.303 N 
ATOM     24  C   LIG    1       -1.350  -9.572  -7.817  0.00  0.00    +0.108 C 
ATOM     25  C   LIG    1       -2.468  -9.680  -8.876  0.00  0.00    +0.020 C 
ATOM     26  C   LIG    1       -1.838 -10.606  -9.950  0.00  0.00    +0.020 C 
ATOM     27  C   LIG    1       -0.354 -10.162  -9.912  0.00  0.00    +0.108 C 
ATOM     28  O   LIG    1        2.116 -10.191  -8.557  0.00  0.00    -0.277 OA
ENDBRANCH  21  22
BRANCH  21  29
ATOM     29  N   LIG    1        2.531 -10.180  -5.939  0.00  0.00    +0.386 N 
ATOM     30  H   LIG    1        2.537 -11.191  -6.117  0.00  0.00    -0.089 HD
ATOM     31  H   LIG    1        2.619 -10.019  -4.936  0.00  0.00    -0.089 HD
ATOM     32  H   LIG    1        3.320  -9.752  -6.421  0.00  0.00    -0.089 HD
ENDBRANCH  21  29
ENDBRANCH  20  21
ENDBRANCH  19  20
ENDBRANCH  18  19
ENDBRANCH  17  18
ENDBRANCH   2  17
TORSDOF 12
