REMARK  Name = ZINC08379018
REMARK                            x       y       z     vdW  Elec       q    Type
REMARK                         _______ _______ _______ _____ _____    ______ ____
ROOT
ATOM      1  S   LIG    1        3.891   2.315  -0.023  0.00  0.00    +0.155 S 
ATOM      2  O   LIG    1        3.597   3.595  -0.564  0.00  0.00    -0.132 OA
ATOM      3  O   LIG    1        4.872   1.456  -0.588  0.00  0.00    -0.132 OA
ENDROOT
BRANCH   1   6
ATOM      4  C   LIG    1       -0.017   1.380   0.010  0.00  0.00    +0.040 A 
ATOM      5  C   LIG    1        1.171   2.087   0.002  0.00  0.00    +0.033 A 
ATOM      6  C   LIG    1        2.377   1.412  -0.013  0.00  0.00    +0.127 A 
ATOM      7  C   LIG    1        2.397   0.030  -0.021  0.00  0.00    +0.033 A 
ATOM      8  C   LIG    1        1.211  -0.679  -0.014  0.00  0.00    +0.040 A 
ATOM      9  C   LIG    1        0.002  -0.004   0.002  0.00  0.00    +0.124 A 
ATOM     10  F   LIG    1       -1.158  -0.696   0.009  0.00  0.00    -0.205 F 
ENDBRANCH   1   6
BRANCH   1  11
ATOM     11  N   LIG    1        4.326   2.557   1.556  0.00  0.00    +0.061 NA
ATOM     12  C   LIG    1        5.421   3.206   1.838  0.00  0.00    +0.403 C 
BRANCH  12  13
ATOM     13  N   LIG    1        5.782   3.407   3.150  0.00  0.00    -0.288 N 
ATOM     14  H   LIG    1        6.597   3.890   3.359  0.00  0.00    +0.255 HD
ATOM     15  H   LIG    1        5.223   3.066   3.865  0.00  0.00    +0.255 HD
ENDBRANCH  12  13
BRANCH  12  16
ATOM     16  N   LIG    1        6.213   3.690   0.825  0.00  0.00    -0.288 N 
ATOM     17  H   LIG    1        7.028   4.173   1.034  0.00  0.00    +0.255 HD
ATOM     18  H   LIG    1        5.958   3.548  -0.100  0.00  0.00    +0.255 HD
ENDBRANCH  12  16
ENDBRANCH   1  11
TORSDOF 4
