REMARK  Name = ZINC06018490
REMARK                            x       y       z     vdW  Elec       q    Type
REMARK                         _______ _______ _______ _____ _____    ______ ____
ROOT
ATOM      1  N   LIG    1        2.458  -2.458  -4.302  0.00  0.00    -0.199 N 
ATOM      2  C   LIG    1        3.153  -3.610  -4.244  0.00  0.00    +0.225 A 
ATOM      3  C   LIG    1        3.608  -3.893  -5.524  0.00  0.00    +0.082 A 
ATOM      4  C   LIG    1        4.369  -4.920  -6.115  0.00  0.00    +0.126 A 
ATOM      5  N   LIG    1        4.649  -4.919  -7.388  0.00  0.00    -0.254 NA
ATOM      6  C   LIG    1        4.248  -3.959  -8.251  0.00  0.00    +0.073 A 
ATOM      7  C   LIG    1        4.595  -4.037  -9.607  0.00  0.00    +0.028 A 
ATOM      8  C   LIG    1        4.184  -3.057 -10.479  0.00  0.00    +0.002 A 
ATOM      9  C   LIG    1        3.426  -1.982 -10.035  0.00  0.00    +0.001 A 
ATOM     10  C   LIG    1        3.071  -1.881  -8.708  0.00  0.00    +0.012 A 
ATOM     11  C   LIG    1        3.477  -2.863  -7.808  0.00  0.00    +0.028 A 
ATOM     12  C   LIG    1        3.123  -2.796  -6.382  0.00  0.00    +0.107 A 
ATOM     13  N   LIG    1        2.446  -1.978  -5.617  0.00  0.00    -0.162 NA
ENDROOT
BRANCH   1  17
ATOM     14  C   LIG    1        0.606  -0.607  -1.056  0.00  0.00    +0.120 A 
ATOM     15  C   LIG    1        1.173   0.162  -2.062  0.00  0.00    +0.048 A 
ATOM     16  C   LIG    1        1.786  -0.450  -3.137  0.00  0.00    +0.031 A 
ATOM     17  C   LIG    1        1.836  -1.836  -3.211  0.00  0.00    +0.069 A 
ATOM     18  C   LIG    1        1.268  -2.605  -2.204  0.00  0.00    +0.031 A 
ATOM     19  C   LIG    1        0.660  -1.992  -1.127  0.00  0.00    +0.048 A 
BRANCH  14  21
ATOM     20  C   LIG    1       -0.017   1.425   0.010  0.00  0.00    +0.277 C 
ATOM     21  O   LIG    1        0.002  -0.004   0.002  0.00  0.00    -0.495 OA
ENDBRANCH  14  21
ENDBRANCH   1  17
BRANCH   2  22
ATOM     22  O   LIG    1        3.369  -4.359  -3.136  0.00  0.00    -0.492 OA
ATOM     23  H   LIG    1        2.692  -5.031  -2.977  0.00  0.00    +0.294 HD
ENDBRANCH   2  22
TORSDOF 3
