REMARK  Name = ZINC06441556
REMARK                            x       y       z     vdW  Elec       q    Type
REMARK                         _______ _______ _______ _____ _____    ______ ____
ROOT
ATOM      1  N   LIG    1       -5.651  -2.974  -1.542  0.00  0.00    -0.112 N 
ATOM      2  C   LIG    1       -6.373  -2.110  -2.301  0.00  0.00    +0.143 A 
ATOM      3  C   LIG    1       -6.521  -2.669  -3.534  0.00  0.00    +0.114 A 
ATOM      4  C   LIG    1       -5.869  -3.910  -3.522  0.00  0.00    +0.246 A 
ATOM      5  N   LIG    1       -5.345  -4.089  -2.333  0.00  0.00    -0.110 NA
ENDROOT
BRANCH   1   6
ATOM      6  S   LIG    1       -5.207  -2.748   0.036  0.00  0.00    +0.101 S 
ATOM      7  O   LIG    1       -6.142  -1.836   0.595  0.00  0.00    -0.146 OA
ATOM      8  O   LIG    1       -4.982  -4.040   0.584  0.00  0.00    -0.146 OA
BRANCH   6  12
ATOM      9  C   LIG    1       -1.200  -0.637   0.010  0.00  0.00    +0.120 A 
ATOM     10  C   LIG    1       -2.375   0.101   0.019  0.00  0.00    +0.047 A 
ATOM     11  C   LIG    1       -3.596  -0.545   0.027  0.00  0.00    +0.032 A 
ATOM     12  C   LIG    1       -3.648  -1.927   0.026  0.00  0.00    +0.113 A 
ATOM     13  C   LIG    1       -2.479  -2.665   0.017  0.00  0.00    +0.032 A 
ATOM     14  C   LIG    1       -1.255  -2.024   0.003  0.00  0.00    +0.047 A 
BRANCH   9  16
ATOM     15  C   LIG    1       -0.017   1.425   0.010  0.00  0.00    +0.277 C 
ATOM     16  O   LIG    1        0.002  -0.004   0.002  0.00  0.00    -0.495 OA
ENDBRANCH   9  16
ENDBRANCH   6  12
ENDBRANCH   1   6
BRANCH   2  17
ATOM     17  N   LIG    1       -6.872  -0.876  -1.893  0.00  0.00    -0.342 N 
ATOM     18  H   LIG    1       -7.379  -0.329  -2.513  0.00  0.00    +0.144 HD
ATOM     19  H   LIG    1       -6.713  -0.564  -0.988  0.00  0.00    +0.144 HD
ENDBRANCH   2  17
BRANCH   4  20
ATOM     20  O   LIG    1       -5.789  -4.777  -4.566  0.00  0.00    -0.402 OA
BRANCH  20  21
ATOM     21  C   LIG    1       -5.120  -5.931  -4.380  0.00  0.00    +0.346 C 
ATOM     22  O   LIG    1       -4.611  -6.171  -3.304  0.00  0.00    -0.244 OA
BRANCH  21  23
ATOM     23  C   LIG    1       -5.005  -6.905  -5.485  0.00  0.00    +0.059 A 
ATOM     24  C   LIG    1       -5.585  -6.630  -6.725  0.00  0.00    +0.015 A 
ATOM     25  C   LIG    1       -5.474  -7.543  -7.753  0.00  0.00    +0.001 A 
ATOM     26  C   LIG    1       -4.791  -8.731  -7.556  0.00  0.00    +0.000 A 
ATOM     27  C   LIG    1       -4.215  -9.010  -6.330  0.00  0.00    +0.001 A 
ATOM     28  C   LIG    1       -4.313  -8.103  -5.295  0.00  0.00    +0.015 A 
ENDBRANCH  21  23
ENDBRANCH  20  21
ENDBRANCH   4  20
TORSDOF 7
