REMARK  Name = ZINC06523896
REMARK                            x       y       z     vdW  Elec       q    Type
REMARK                         _______ _______ _______ _____ _____    ______ ____
ROOT
ATOM      1  C   LIG    1       -0.016   1.317   0.009  0.00  0.00    +0.222 A 
ATOM      2  C   LIG    1        1.285   1.952   0.000  0.00  0.00    +0.289 A 
ATOM      3  O   LIG    1        1.440   3.161   0.005  0.00  0.00    -0.265 OA
ATOM      4  N   LIG    1        2.309   1.072  -0.014  0.00  0.00    -0.276 N 
ATOM      5  H   LIG    1        3.260   1.263  -0.022  0.00  0.00    +0.179 HD
ATOM      6  S   LIG    1        1.560  -0.420  -0.015  0.00  0.00    +0.095 S 
ATOM      7  N   LIG    1        0.002  -0.004   0.002  0.00  0.00    -0.182 NA
ENDROOT
BRANCH   1   8
ATOM      8  C   LIG    1       -1.265   2.086   0.031  0.00  0.00    +0.361 C 
ATOM      9  O   LIG    1       -2.342   1.504   0.043  0.00  0.00    -0.243 OA
BRANCH   8  10
ATOM     10  O   LIG    1       -1.230   3.310   0.038  0.00  0.00    -0.476 OA
ATOM     11  H   LIG    1       -0.406   3.755   0.029  0.00  0.00    +0.295 HD
ENDBRANCH   8  10
ENDBRANCH   1   8
TORSDOF 2
