REMARK  Name = ZINC08294957
REMARK                            x       y       z     vdW  Elec       q    Type
REMARK                         _______ _______ _______ _____ _____    ______ ____
ROOT
ATOM      1  C   LIG    1       -0.132   3.793   0.024  0.00  0.00    +0.041 A 
ATOM      2  C   LIG    1        1.107   3.179   0.009  0.00  0.00    +0.023 A 
ATOM      3  C   LIG    1        1.174   1.794   0.001  0.00  0.00    +0.003 A 
ATOM      4  C   LIG    1       -0.013   1.076   0.008  0.00  0.00    +0.020 A 
ATOM      5  C   LIG    1       -1.214   1.759   0.017  0.00  0.00    +0.111 A 
ATOM      6  N   LIG    1       -1.239   3.078   0.030  0.00  0.00    -0.260 NA
ENDROOT
BRANCH   1   7
ATOM      7  C   LIG    1       -0.217   5.298   0.032  0.00  0.00    +0.055 C 
BRANCH   7   9
ATOM      8  C   LIG    1       -1.169   7.294  -1.130  0.00  0.00    +0.004 C 
ATOM      9  C   LIG    1       -1.083   5.766  -1.139  0.00  0.00    +0.003 C 
ENDBRANCH   7   9
ENDBRANCH   1   7
TORSDOF 2
