REMARK  Name = ZINC06575869
REMARK                            x       y       z     vdW  Elec       q    Type
REMARK                         _______ _______ _______ _____ _____    ______ ____
ROOT
ATOM      1  C   LIG    1       -6.178  -1.136  -0.075  0.00  0.00    +0.072 A 
ATOM      2  C   LIG    1       -4.953  -0.465  -0.081  0.00  0.00    +0.037 A 
ATOM      3  C   LIG    1       -4.938   0.926   0.030  0.00  0.00    -0.013 A 
ATOM      4  C   LIG    1       -6.178   1.594   0.151  0.00  0.00    +0.015 A 
ATOM      5  C   LIG    1       -6.254   3.047   0.279  0.00  0.00    -0.008 A 
ATOM      6  C   LIG    1       -5.105   3.843   0.287  0.00  0.00    +0.009 A 
ATOM      7  C   LIG    1       -5.221   5.198   0.409  0.00  0.00    +0.001 A 
ATOM      8  C   LIG    1       -6.470   5.797   0.524  0.00  0.00    +0.001 A 
ATOM      9  C   LIG    1       -7.610   5.048   0.520  0.00  0.00    +0.008 A 
ATOM     10  C   LIG    1       -7.526   3.654   0.397  0.00  0.00    -0.017 A 
ATOM     11  C   LIG    1       -8.689   2.850   0.388  0.00  0.00    +0.010 A 
ATOM     12  C   LIG    1       -8.617   1.510   0.258  0.00  0.00    +0.029 A 
ATOM     13  C   LIG    1       -7.373   0.843   0.143  0.00  0.00    +0.073 A 
ATOM     14  N   LIG    1       -7.324  -0.486   0.033  0.00  0.00    -0.247 NA
ENDROOT
BRANCH   1  18
ATOM     15  C   LIG    1       -6.222  -5.374  -0.415  0.00  0.00    +0.000 A 
ATOM     16  C   LIG    1       -7.412  -4.679  -0.301  0.00  0.00    +0.001 A 
ATOM     17  C   LIG    1       -7.404  -3.304  -0.190  0.00  0.00    +0.010 A 
ATOM     18  C   LIG    1       -6.193  -2.614  -0.194  0.00  0.00    +0.000 A 
ATOM     19  C   LIG    1       -4.997  -3.319  -0.315  0.00  0.00    +0.010 A 
ATOM     20  C   LIG    1       -5.016  -4.695  -0.420  0.00  0.00    +0.001 A 
ENDBRANCH   1  18
BRANCH   3  21
ATOM     21  C   LIG    1       -3.671   1.673   0.029  0.00  0.00    +0.009 C 
ATOM     22  C   LIG    1       -2.803   1.522  -0.987  0.00  0.00    +0.008 C 
BRANCH  22  23
ATOM     23  C   LIG    1       -1.534   2.270  -0.989  0.00  0.00    -0.025 A 
ATOM     24  C   LIG    1       -0.629   2.115  -2.043  0.00  0.00    +0.010 A 
ATOM     25  C   LIG    1        0.555   2.823  -2.040  0.00  0.00    +0.033 A 
ATOM     26  C   LIG    1        0.849   3.682  -0.996  0.00  0.00    +0.122 A 
ATOM     27  C   LIG    1       -0.040   3.837   0.054  0.00  0.00    +0.033 A 
ATOM     28  C   LIG    1       -1.227   3.135   0.066  0.00  0.00    +0.010 A 
BRANCH  26  29
ATOM     29  N   LIG    1        2.122   4.438  -1.001  0.00  0.00    +0.006 N 
ATOM     30  O   LIG    1        2.906   4.305  -1.923  0.00  0.00    -0.130 OA
BRANCH  29  31
ATOM     31  O   LIG    1        2.384   5.194  -0.083  0.00  0.00    -0.396 OA
ATOM     32  H   LIG    1        1.781   5.297   0.627  0.00  0.00    +0.329 HD
ENDBRANCH  29  31
ENDBRANCH  26  29
ENDBRANCH  22  23
ENDBRANCH   3  21
TORSDOF 5
