REMARK  Name = ZINC06031666
REMARK                            x       y       z     vdW  Elec       q    Type
REMARK                         _______ _______ _______ _____ _____    ______ ____
ROOT
ATOM      1  C   LIG    1       -2.997   2.467   1.529  0.00  0.00    +0.070 C 
ATOM      2  C   LIG    1       -2.130   1.508   0.710  0.00  0.00    +0.248 C 
ATOM      3  O   LIG    1       -0.752   1.583   1.152  0.00  0.00    -0.349 OA
ATOM      4  C   LIG    1       -0.013   1.086   0.008  0.00  0.00    +0.196 C 
ATOM      5  C   LIG    1       -0.820   1.627  -1.185  0.00  0.00    +0.084 C 
ATOM      6  C   LIG    1       -0.177   2.902  -1.724  0.00  0.00    -0.041 C 
ATOM      7  N   LIG    1        0.172   2.728  -3.152  0.00  0.00    +0.382 N 
ATOM      8  H   LIG    1        0.599   3.595  -3.499  0.00  0.00    -0.082 HD
ATOM      9  C   LIG    1        1.140   1.622  -3.304  0.00  0.00    -0.078 C 
ATOM     10  C   LIG    1        0.539   0.307  -2.798  0.00  0.00    -0.012 C 
ATOM     11  C   LIG    1       -1.046   2.443  -3.938  0.00  0.00    -0.078 C 
ATOM     12  C   LIG    1       -1.709   1.149  -3.457  0.00  0.00    -0.012 C 
ATOM     13  C   LIG    1       -0.886   0.576  -2.294  0.00  0.00    +0.018 C 
ATOM     14  O   LIG    1       -2.131   1.900  -0.675  0.00  0.00    -0.345 OA
ENDROOT
TORSDOF 0
