REMARK  Name = ZINC06649233
REMARK                            x       y       z     vdW  Elec       q    Type
REMARK                         _______ _______ _______ _____ _____    ______ ____
ROOT
ATOM      1  N   LIG    1        4.152  -0.952   1.338  0.00  0.00    -0.306 N 
ATOM      2  H   LIG    1        3.610  -0.648   2.082  0.00  0.00    +0.149 HD
ATOM      3  C   LIG    1        5.311  -1.601   1.569  0.00  0.00    +0.261 C 
ATOM      4  O   LIG    1        5.991  -1.982   0.635  0.00  0.00    -0.269 OA
ENDROOT
BRANCH   3   5
ATOM      5  C   LIG    1        5.753  -1.847   2.950  0.00  0.00    +0.103 A 
ATOM      6  C   LIG    1        6.900  -2.481   3.308  0.00  0.00    +0.040 A 
ATOM      7  C   LIG    1        6.952  -2.511   4.723  0.00  0.00    +0.000 A 
ATOM      8  C   LIG    1        7.877  -3.025   5.641  0.00  0.00    +0.010 A 
ATOM      9  C   LIG    1        7.646  -2.899   6.979  0.00  0.00    +0.001 A 
ATOM     10  C   LIG    1        6.499  -2.266   7.443  0.00  0.00    +0.002 A 
ATOM     11  C   LIG    1        5.575  -1.754   6.561  0.00  0.00    +0.026 A 
ATOM     12  C   LIG    1        5.789  -1.869   5.190  0.00  0.00    +0.047 A 
ATOM     13  N   LIG    1        5.072  -1.465   4.089  0.00  0.00    -0.351 N 
ATOM     14  H   LIG    1        4.226  -0.991   4.109  0.00  0.00    +0.166 HD
ENDBRANCH   3   5
BRANCH   1  15
ATOM     15  C   LIG    1        3.711  -0.707  -0.038  0.00  0.00    +0.140 C 
BRANCH  15  19
ATOM     16  C   LIG    1       -0.017   1.378   0.010  0.00  0.00    +0.000 A 
ATOM     17  C   LIG    1        1.171   2.086   0.002  0.00  0.00    +0.000 A 
ATOM     18  C   LIG    1        2.377   1.411  -0.013  0.00  0.00    +0.005 A 
ATOM     19  C   LIG    1        2.396   0.029  -0.020  0.00  0.00    -0.030 A 
ATOM     20  C   LIG    1        1.208  -0.679  -0.012  0.00  0.00    +0.005 A 
ATOM     21  C   LIG    1        0.002  -0.004   0.002  0.00  0.00    +0.000 A 
ENDBRANCH  15  19
ENDBRANCH   1  15
TORSDOF 3
