REMARK  Name = ZINC07653967
REMARK                            x       y       z     vdW  Elec       q    Type
REMARK                         _______ _______ _______ _____ _____    ______ ____
ROOT
ATOM      1  N   LIG    1        6.011  -1.980  -0.762  0.00  0.00    -0.310 NA
ATOM      2  H   LIG    1        5.851  -1.993  -1.758  0.00  0.00    +0.122 HD
ENDROOT
BRANCH   1   3
ATOM      3  C   LIG    1        4.918  -2.649  -0.044  0.00  0.00    +0.129 C 
BRANCH   3  11
ATOM      4  C   LIG    1       -0.017   1.378   0.010  0.00  0.00    +0.004 A 
ATOM      5  C   LIG    1        1.170   2.088   0.002  0.00  0.00    +0.004 A 
ATOM      6  C   LIG    1        2.378   1.418  -0.012  0.00  0.00    +0.049 A 
ATOM      7  C   LIG    1        2.404   0.031  -0.019  0.00  0.00    +0.163 A 
ATOM      8  C   LIG    1        1.212  -0.683  -0.014  0.00  0.00    +0.162 A 
ATOM      9  O   LIG    1        1.214  -2.043  -0.029  0.00  0.00    -0.485 OA
ATOM     10  C   LIG    1        2.441  -2.689   0.331  0.00  0.00    +0.275 C 
ATOM     11  C   LIG    1        3.587  -1.993  -0.416  0.00  0.00    +0.224 C 
ATOM     12  O   LIG    1        3.602  -0.615  -0.029  0.00  0.00    -0.481 OA
ATOM     13  C   LIG    1        0.002  -0.004   0.002  0.00  0.00    +0.049 A 
ENDBRANCH   3  11
ENDBRANCH   1   3
BRANCH   1  14
ATOM     14  C   LIG    1        7.308  -2.584  -0.429  0.00  0.00    +0.115 C 
BRANCH  14  15
ATOM     15  C   LIG    1        8.419  -1.862  -1.193  0.00  0.00    +0.166 C 
BRANCH  15  16
ATOM     16  O   LIG    1        8.506  -0.509  -0.742  0.00  0.00    -0.387 OA
ATOM     17  H   LIG    1        8.704  -0.421   0.201  0.00  0.00    +0.210 HD
ENDBRANCH  15  16
BRANCH  15  18
ATOM     18  C   LIG    1        9.753  -2.570  -0.944  0.00  0.00    +0.261 C 
BRANCH  18  19
ATOM     19  O   LIG    1       10.769  -1.967  -1.748  0.00  0.00    -0.486 OA
BRANCH  19  20
ATOM     20  C   LIG    1       12.023  -2.482  -1.645  0.00  0.00    +0.156 A 
ATOM     21  C   LIG    1       12.269  -3.547  -0.792  0.00  0.00    +0.048 A 
ATOM     22  C   LIG    1       13.545  -4.069  -0.689  0.00  0.00    +0.004 A 
ATOM     23  C   LIG    1       14.576  -3.529  -1.434  0.00  0.00    +0.003 A 
ATOM     24  C   LIG    1       14.336  -2.466  -2.285  0.00  0.00    +0.042 A 
ATOM     25  C   LIG    1       13.060  -1.945  -2.398  0.00  0.00    +0.165 A 
ATOM     26  F   LIG    1       12.823  -0.910  -3.234  0.00  0.00    -0.202 F 
ENDBRANCH  19  20
ENDBRANCH  18  19
ENDBRANCH  15  18
ENDBRANCH  14  15
ENDBRANCH   1  14
TORSDOF 8
