REMARK  Name = ZINC08195613
REMARK                            x       y       z     vdW  Elec       q    Type
REMARK                         _______ _______ _______ _____ _____    ______ ____
ROOT
ATOM      1  N   LIG    1        6.797 -16.783  11.038  0.00  0.00    -0.281 N 
ATOM      2  H   LIG    1        7.163 -16.151  11.676  0.00  0.00    +0.152 HD
ATOM      3  C   LIG    1        6.940 -18.107  11.243  0.00  0.00    +0.400 C 
ATOM      4  O   LIG    1        6.481 -18.899  10.443  0.00  0.00    -0.226 OA
ENDROOT
BRANCH   3   5
ATOM      5  O   LIG    1        7.591 -18.553  12.333  0.00  0.00    -0.448 OA
BRANCH   5   6
ATOM      6  C   LIG    1        7.705 -19.969  12.487  0.00  0.00    +0.267 C 
BRANCH   6   7
ATOM      7  C   LIG    1        8.470 -20.283  13.774  0.00  0.00    +0.181 C 
BRANCH   7   8
ATOM      8  O   LIG    1        7.709 -19.841  14.900  0.00  0.00    -0.374 OA
ATOM      9  C   LIG    1        7.984 -18.495  15.295  0.00  0.00    +0.194 C 
ENDBRANCH   7   8
BRANCH   7  10
ATOM     10  C   LIG    1        8.701 -21.792  13.876  0.00  0.00    +0.207 C 
BRANCH  10  11
ATOM     11  O   LIG    1        9.515 -22.073  15.016  0.00  0.00    -0.284 OA
BRANCH  11  12
ATOM     12  P   LIG    1        9.959 -23.564  15.430  0.00  0.00    +0.475 P 
ATOM     13  O   LIG    1        8.704 -24.453  15.580  0.00  0.00    -0.227 OA
BRANCH  12  14
ATOM     14  O   LIG    1       10.877 -24.151  14.334  0.00  0.00    -0.302 OA
ATOM     15  H   LIG    1       10.398 -24.179  13.491  0.00  0.00    +0.222 HD
ENDBRANCH  12  14
BRANCH  12  16
ATOM     16  O   LIG    1       10.754 -23.519  16.829  0.00  0.00    -0.285 OA
BRANCH  16  17
ATOM     17  C   LIG    1       11.190 -24.694  17.515  0.00  0.00    +0.194 C 
BRANCH  17  18
ATOM     18  C   LIG    1       11.909 -24.295  18.805  0.00  0.00    +0.150 C 
BRANCH  18  19
ATOM     19  N   LIG    1       12.355 -25.500  19.509  0.00  0.00    -0.345 N 
ATOM     20  C   LIG    1       11.552 -26.071  20.384  0.00  0.00    +0.093 A 
ATOM     21  C   LIG    1       12.014 -27.184  21.008  0.00  0.00    +0.064 A 
ATOM     22  S   LIG    1       13.630 -27.333  20.262  0.00  0.00    -0.086 S 
ATOM     23  C   LIG    1       13.542 -25.990  19.252  0.00  0.00    +0.131 A 
ENDBRANCH  18  19
ENDBRANCH  17  18
ENDBRANCH  16  17
ENDBRANCH  12  16
ENDBRANCH  11  12
ENDBRANCH  10  11
ENDBRANCH   7  10
ENDBRANCH   6   7
ENDBRANCH   5   6
ENDBRANCH   3   5
BRANCH   1  24
ATOM     24  C   LIG    1        6.088 -16.297   9.851  0.00  0.00    +0.107 C 
BRANCH  24  25
ATOM     25  C   LIG    1        6.067 -14.768   9.859  0.00  0.00    +0.019 C 
BRANCH  25  26
ATOM     26  C   LIG    1        5.327 -14.261   8.620  0.00  0.00    +0.002 C 
BRANCH  26  27
ATOM     27  C   LIG    1        5.306 -12.731   8.628  0.00  0.00    +0.000 C 
BRANCH  27  28
ATOM     28  C   LIG    1        4.566 -12.224   7.389  0.00  0.00    +0.000 C 
BRANCH  28  29
ATOM     29  C   LIG    1        4.546 -10.694   7.397  0.00  0.00    +0.000 C 
BRANCH  29  30
ATOM     30  C   LIG    1        3.806 -10.187   6.158  0.00  0.00    -0.000 C 
BRANCH  30  31
ATOM     31  C   LIG    1        3.785  -8.658   6.166  0.00  0.00    -0.000 C 
BRANCH  31  32
ATOM     32  C   LIG    1        3.045  -8.151   4.926  0.00  0.00    -0.000 C 
BRANCH  32  33
ATOM     33  C   LIG    1        3.024  -6.621   4.935  0.00  0.00    -0.000 C 
BRANCH  33  34
ATOM     34  C   LIG    1        2.284  -6.114   3.695  0.00  0.00    -0.000 C 
BRANCH  34  35
ATOM     35  C   LIG    1        2.264  -4.584   3.704  0.00  0.00    -0.000 C 
BRANCH  35  36
ATOM     36  C   LIG    1        1.524  -4.077   2.464  0.00  0.00    -0.000 C 
BRANCH  36  37
ATOM     37  C   LIG    1        1.503  -2.548   2.473  0.00  0.00    -0.000 C 
BRANCH  37  38
ATOM     38  C   LIG    1        0.763  -2.041   1.233  0.00  0.00    -0.000 C 
BRANCH  38  39
ATOM     39  C   LIG    1        0.742  -0.511   1.242  0.00  0.00    -0.000 C 
BRANCH  39  41
ATOM     40  C   LIG    1       -0.019   1.526   0.010  0.00  0.00    +0.004 C 
ATOM     41  C   LIG    1        0.002  -0.004   0.002  0.00  0.00    -0.003 C 
ENDBRANCH  39  41
ENDBRANCH  38  39
ENDBRANCH  37  38
ENDBRANCH  36  37
ENDBRANCH  35  36
ENDBRANCH  34  35
ENDBRANCH  33  34
ENDBRANCH  32  33
ENDBRANCH  31  32
ENDBRANCH  30  31
ENDBRANCH  29  30
ENDBRANCH  28  29
ENDBRANCH  27  28
ENDBRANCH  26  27
ENDBRANCH  25  26
ENDBRANCH  24  25
ENDBRANCH   1  24
TORSDOF 29
