REMARK  Name = ZINC08442939
REMARK                            x       y       z     vdW  Elec       q    Type
REMARK                         _______ _______ _______ _____ _____    ______ ____
ROOT
ATOM      1  N   LIG    1       -2.683   5.939   2.603  0.00  0.00    -0.189 NA
ATOM      2  C   LIG    1       -1.569   5.313   2.686  0.00  0.00    +0.043 C 
ATOM      3  C   LIG    1       -0.278   6.084   2.791  0.00  0.00    +0.063 C 
ENDROOT
BRANCH   1   5
ATOM      4  C   LIG    1       -3.875   7.998   2.524  0.00  0.00    +0.270 C 
ATOM      5  N   LIG    1       -2.702   7.340   2.611  0.00  0.00    -0.204 N 
ATOM      6  H   LIG    1       -1.871   7.835   2.679  0.00  0.00    +0.177 HD
ATOM      7  O   LIG    1       -4.914   7.378   2.439  0.00  0.00    -0.270 OA
BRANCH   4   8
ATOM      8  C   LIG    1       -3.895   9.505   2.532  0.00  0.00    +0.326 C 
BRANCH   8   9
ATOM      9  O   LIG    1       -5.245   9.963   2.430  0.00  0.00    -0.483 OA
BRANCH   9  13
ATOM     10  C   LIG    1       -8.317  13.750   2.215  0.00  0.00    +0.045 C 
ATOM     11  C   LIG    1       -6.922  13.190   2.320  0.00  0.00    -0.033 A 
ATOM     12  C   LIG    1       -6.725  11.823   2.327  0.00  0.00    +0.050 A 
ATOM     13  C   LIG    1       -5.441  11.309   2.424  0.00  0.00    +0.122 A 
ATOM     14  C   LIG    1       -4.356  12.169   2.519  0.00  0.00    +0.047 A 
ATOM     15  C   LIG    1       -4.557  13.535   2.507  0.00  0.00    +0.019 A 
ATOM     16  C   LIG    1       -5.839  14.046   2.410  0.00  0.00    +0.021 A 
ATOM     17 BR   LIG    1       -6.112  15.918   2.401  0.00  0.00    -0.050 Br
ENDBRANCH   9  13
ENDBRANCH   8   9
ENDBRANCH   4   8
ENDBRANCH   1   5
BRANCH   2  18
ATOM     18  C   LIG    1       -1.549   3.806   2.677  0.00  0.00    +0.147 C 
BRANCH  18  19
ATOM     19  C   LIG    1       -0.843   3.320   1.438  0.00  0.00    +0.219 C 
ATOM     20  N   LIG    1       -0.704   1.998   1.216  0.00  0.00    -0.309 N 
ATOM     21  H   LIG    1       -1.058   1.359   1.854  0.00  0.00    +0.149 HD
ATOM     22  O   LIG    1       -0.401   4.119   0.639  0.00  0.00    -0.275 OA
BRANCH  20  23
ATOM     23  C   LIG    1       -0.019   1.526   0.010  0.00  0.00    +0.035 C 
ATOM     24  C   LIG    1        1.417   2.055  -0.000  0.00  0.00    +0.029 C 
ATOM     25  C   LIG    1        2.133   1.562  -1.259  0.00  0.00    -0.008 C 
ATOM     26  C   LIG    1        2.154   0.032  -1.268  0.00  0.00    +0.007 C 
ATOM     27  C   LIG    1        0.718  -0.497  -1.257  0.00  0.00    -0.008 C 
ATOM     28  C   LIG    1       -0.022   0.009  -2.496  0.00  0.00    +0.007 C 
ATOM     29  C   LIG    1       -0.043   1.539  -2.488  0.00  0.00    -0.008 C 
ATOM     30  C   LIG    1        1.393   2.069  -2.499  0.00  0.00    +0.007 C 
ATOM     31  C   LIG    1       -0.759   2.033  -1.229  0.00  0.00    +0.029 C 
ATOM     32  C   LIG    1        0.002  -0.004   0.002  0.00  0.00    +0.029 C 
ENDBRANCH  20  23
ENDBRANCH  18  19
ENDBRANCH   2  18
TORSDOF 7
