REMARK  Name = ZINC06261799
REMARK                            x       y       z     vdW  Elec       q    Type
REMARK                         _______ _______ _______ _____ _____    ______ ____
ROOT
ATOM      1  C   LIG    1        0.045  -0.754   3.436  0.00  0.00    +0.366 C 
ATOM      2  O   LIG    1        0.060  -1.962   3.303  0.00  0.00    -0.243 OA
ENDROOT
BRANCH   1   3
ATOM      3  C   LIG    1        0.050  -0.162   4.787  0.00  0.00    +0.061 A 
ATOM      4  C   LIG    1        0.026   1.227   4.943  0.00  0.00    +0.018 A 
ATOM      5  C   LIG    1        0.030   1.776   6.205  0.00  0.00    +0.046 A 
ATOM      6  C   LIG    1        0.058   0.951   7.324  0.00  0.00    +0.120 A 
ATOM      7  C   LIG    1        0.081  -0.430   7.173  0.00  0.00    +0.046 A 
ATOM      8  C   LIG    1        0.071  -0.988   5.915  0.00  0.00    +0.018 A 
BRANCH   6   9
ATOM      9  O   LIG    1        0.063   1.497   8.567  0.00  0.00    -0.495 OA
ATOM     10  C   LIG    1        0.092   0.592   9.672  0.00  0.00    +0.277 C 
ENDBRANCH   6   9
ENDBRANCH   1   3
BRANCH   1  11
ATOM     11  O   LIG    1        0.024   0.043   2.351  0.00  0.00    -0.312 OA
BRANCH  11  14
ATOM     12  C   LIG    1       -0.018   1.503   0.010  0.00  0.00    +0.072 C 
ATOM     13  C   LIG    1        0.002  -0.004   0.002  0.00  0.00    +0.110 C 
ATOM     14  N   LIG    1        0.022  -0.658   1.121  0.00  0.00    -0.076 NA
BRANCH  13  15
ATOM     15  C   LIG    1       -0.000  -0.732  -1.275  0.00  0.00    +0.125 A 
ATOM     16  N   LIG    1       -0.012  -0.258  -2.515  0.00  0.00    -0.246 NA
ATOM     17  C   LIG    1       -0.012  -1.059  -3.550  0.00  0.00    +0.119 A 
ATOM     18  C   LIG    1        0.001  -2.409  -3.362  0.00  0.00    +0.067 A 
ATOM     19  S   LIG    1        0.021  -2.494  -1.576  0.00  0.00    -0.074 S 
ENDBRANCH  13  15
ENDBRANCH  11  14
ENDBRANCH   1  11
TORSDOF 5
