REMARK  Name = ZINC07609882
REMARK                            x       y       z     vdW  Elec       q    Type
REMARK                         _______ _______ _______ _____ _____    ______ ____
ROOT
ATOM      1  N   LIG    1       -0.800   1.636   5.973  0.00  0.00    -0.281 N 
ATOM      2  H   LIG    1       -1.553   2.247   5.950  0.00  0.00    +0.155 HD
ATOM      3  C   LIG    1       -0.328   1.192   7.154  0.00  0.00    +0.248 C 
ATOM      4  O   LIG    1        0.673   0.503   7.189  0.00  0.00    -0.270 OA
ENDROOT
BRANCH   3   5
ATOM      5  C   LIG    1       -1.029   1.540   8.408  0.00  0.00    +0.039 A 
ATOM      6  C   LIG    1       -2.176   2.336   8.371  0.00  0.00    +0.014 A 
ATOM      7  C   LIG    1       -2.829   2.653   9.544  0.00  0.00    +0.018 A 
ATOM      8  C   LIG    1       -2.342   2.194  10.757  0.00  0.00    +0.048 A 
ATOM      9 BR   LIG    1       -3.239   2.640  12.361  0.00  0.00    -0.048 Br
ATOM     10  C   LIG    1       -1.202   1.410  10.800  0.00  0.00    +0.136 A 
ATOM     11  C   LIG    1       -0.543   1.081   9.633  0.00  0.00    +0.046 A 
BRANCH  10  12
ATOM     12  N   LIG    1       -0.688   0.924  12.100  0.00  0.00    +0.007 N 
ATOM     13  O   LIG    1        0.315   0.234  12.139  0.00  0.00    -0.130 OA
BRANCH  12  14
ATOM     14  O   LIG    1       -1.268   1.214  13.131  0.00  0.00    -0.396 OA
ATOM     15  H   LIG    1       -2.040   1.745  13.101  0.00  0.00    +0.329 HD
ENDBRANCH  12  14
ENDBRANCH  10  12
ENDBRANCH   3   5
BRANCH   1  20
ATOM     16  C   LIG    1        0.922  -0.472   3.497  0.00  0.00    +0.122 A 
ATOM     17  C   LIG    1        0.977   0.392   2.412  0.00  0.00    +0.046 A 
ATOM     18  C   LIG    1        0.443   1.663   2.511  0.00  0.00    +0.005 A 
ATOM     19  C   LIG    1       -0.146   2.077   3.690  0.00  0.00    +0.023 A 
ATOM     20  C   LIG    1       -0.203   1.217   4.779  0.00  0.00    +0.037 A 
ATOM     21  C   LIG    1        0.328  -0.062   4.680  0.00  0.00    +0.069 A 
BRANCH  16  23
ATOM     22  C   LIG    1        2.039  -2.080   2.147  0.00  0.00    +0.277 C 
ATOM     23  O   LIG    1        1.447  -1.722   3.398  0.00  0.00    -0.495 OA
ENDBRANCH  16  23
ENDBRANCH   1  20
TORSDOF 5
