REMARK  Name = ZINC06261794
REMARK                            x       y       z     vdW  Elec       q    Type
REMARK                         _______ _______ _______ _____ _____    ______ ____
ROOT
ATOM      1  O   LIG    1       -0.522   1.431  -3.684  0.00  0.00    -0.317 OA
ENDROOT
BRANCH   1   4
ATOM      2  C   LIG    1       -1.548   2.133  -6.048  0.00  0.00    +0.072 C 
ATOM      3  C   LIG    1       -0.316   1.287  -5.847  0.00  0.00    +0.110 C 
ATOM      4  N   LIG    1        0.091   1.009  -4.649  0.00  0.00    -0.077 NA
BRANCH   3   5
ATOM      5  C   LIG    1        0.423   0.778  -7.011  0.00  0.00    +0.125 A 
ATOM      6  N   LIG    1        1.517   0.027  -7.052  0.00  0.00    -0.246 NA
ATOM      7  C   LIG    1        2.048  -0.340  -8.190  0.00  0.00    +0.119 A 
ATOM      8  C   LIG    1        1.476   0.051  -9.364  0.00  0.00    +0.067 A 
ATOM      9  S   LIG    1        0.086   0.998  -8.754  0.00  0.00    -0.074 S 
ENDBRANCH   3   5
ENDBRANCH   1   4
BRANCH   1  10
ATOM     10  C   LIG    1       -0.047   1.107  -2.471  0.00  0.00    +0.339 C 
ATOM     11  O   LIG    1        0.949   0.423  -2.373  0.00  0.00    -0.248 OA
BRANCH  10  12
ATOM     12  C   LIG    1       -0.753   1.593  -1.232  0.00  0.00    +0.100 C 
ATOM     13  C   LIG    1       -0.013   1.086   0.008  0.00  0.00    +0.015 C 
ATOM     14  C   LIG    1       -0.729   1.579   1.267  0.00  0.00    +0.001 C 
ATOM     15  C   LIG    1       -0.750   3.109   1.275  0.00  0.00    +0.000 C 
ATOM     16  C   LIG    1       -1.490   3.616   0.036  0.00  0.00    +0.001 C 
ATOM     17  C   LIG    1       -0.773   3.123  -1.223  0.00  0.00    +0.015 C 
ENDBRANCH  10  12
ENDBRANCH   1  10
TORSDOF 4
