REMARK  Name = ZINC06525249
REMARK                            x       y       z     vdW  Elec       q    Type
REMARK                         _______ _______ _______ _____ _____    ______ ____
ROOT
ATOM      1  C   LIG    1        3.657   2.178  -0.022  0.00  0.00    +0.068 A 
ATOM      2  C   LIG    1        4.425   2.266   1.095  0.00  0.00    +0.208 A 
ATOM      3  O   LIG    1        5.584   2.928   1.124  0.00  0.00    -0.462 OA
ATOM      4  C   LIG    1        5.925   3.804   0.158  0.00  0.00    +0.145 A 
ATOM      5  C   LIG    1        6.959   4.708   0.357  0.00  0.00    +0.092 A 
ATOM      6  C   LIG    1        7.307   5.597  -0.646  0.00  0.00    +0.124 A 
ATOM      7  C   LIG    1        6.631   5.598  -1.863  0.00  0.00    +0.091 A 
ATOM      8  C   LIG    1        5.596   4.708  -2.081  0.00  0.00    +0.135 A 
ATOM      9  C   LIG    1        5.235   3.812  -1.068  0.00  0.00    +0.106 A 
ATOM     10  C   LIG    1        4.129   2.854  -1.246  0.00  0.00    +0.204 A 
ATOM     11  O   LIG    1        3.630   2.636  -2.337  0.00  0.00    -0.286 OA
ENDROOT
BRANCH   1  14
ATOM     12  C   LIG    1       -0.017   1.384   0.010  0.00  0.00    +0.046 A 
ATOM     13  C   LIG    1        1.167   2.094   0.002  0.00  0.00    +0.016 A 
ATOM     14  C   LIG    1        2.384   1.417  -0.013  0.00  0.00    +0.030 A 
ATOM     15  C   LIG    1        2.402   0.019  -0.021  0.00  0.00    +0.128 A 
ATOM     16  C   LIG    1        1.211  -0.685  -0.013  0.00  0.00    +0.091 A 
ATOM     17  C   LIG    1        0.002  -0.004   0.002  0.00  0.00    +0.120 A 
BRANCH  15  18
ATOM     18  O   LIG    1        3.587  -0.647  -0.036  0.00  0.00    -0.506 OA
ATOM     19  H   LIG    1        3.938  -0.845   0.843  0.00  0.00    +0.292 HD
ENDBRANCH  15  18
BRANCH  17  20
ATOM     20  O   LIG    1       -1.167  -0.698   0.009  0.00  0.00    -0.507 OA
ATOM     21  H   LIG    1       -1.513  -0.894  -0.872  0.00  0.00    +0.292 HD
ENDBRANCH  17  20
ENDBRANCH   1  14
BRANCH   6  22
ATOM     22  O   LIG    1        8.319   6.479  -0.440  0.00  0.00    -0.507 OA
ATOM     23  H   LIG    1        9.189   6.147  -0.701  0.00  0.00    +0.292 HD
ENDBRANCH   6  22
BRANCH   8  24
ATOM     24  O   LIG    1        4.936   4.704  -3.266  0.00  0.00    -0.506 OA
ATOM     25  H   LIG    1        5.319   4.112  -3.928  0.00  0.00    +0.292 HD
ENDBRANCH   8  24
TORSDOF 5
