REMARK  Name = ZINC08438025
REMARK                            x       y       z     vdW  Elec       q    Type
REMARK                         _______ _______ _______ _____ _____    ______ ____
ROOT
ATOM      1  C   LIG    1        4.152  -5.892  -7.152  0.00  0.00    +0.136 A 
ATOM      2  N   LIG    1        3.300  -4.917  -7.372  0.00  0.00    -0.233 NA
ATOM      3  C   LIG    1        2.840  -4.117  -6.383  0.00  0.00    +0.080 A 
ATOM      4  C   LIG    1        1.929  -3.041  -6.485  0.00  0.00    +0.031 A 
ATOM      5  C   LIG    1        1.562  -2.324  -5.377  0.00  0.00    +0.025 A 
ATOM      6  C   LIG    1        2.069  -2.626  -4.116  0.00  0.00    +0.035 A 
ATOM      7  C   LIG    1        2.971  -3.674  -3.982  0.00  0.00    +0.040 A 
ATOM      8  C   LIG    1        3.336  -4.397  -5.090  0.00  0.00    +0.042 A 
ATOM      9  S   LIG    1        4.416  -5.776  -5.388  0.00  0.00    -0.061 S 
ENDROOT
BRANCH   6  10
ATOM     10  N   LIG    1        1.679  -1.879  -2.997  0.00  0.00    -0.283 N 
ATOM     11  H   LIG    1        1.484  -0.933  -3.089  0.00  0.00    +0.155 HD
BRANCH  10  12
ATOM     12  C   LIG    1        1.573  -2.489  -1.762  0.00  0.00    +0.225 A 
ATOM     13  N   LIG    1        1.740  -3.803  -1.653  0.00  0.00    -0.181 NA
ATOM     14  C   LIG    1        1.637  -4.390  -0.465  0.00  0.00    +0.224 A 
ATOM     15  N   LIG    1        1.374  -3.662   0.616  0.00  0.00    -0.181 NA
ATOM     16  C   LIG    1        1.202  -2.348   0.506  0.00  0.00    +0.224 A 
ATOM     17  N   LIG    1        1.304  -1.761  -0.682  0.00  0.00    -0.181 NA
BRANCH  14  18
ATOM     18  N   LIG    1        1.811  -5.754  -0.352  0.00  0.00    -0.299 N 
ATOM     19  C   LIG    1        0.543  -6.421   0.041  0.00  0.00    +0.108 C 
ATOM     20  C   LIG    1        0.768  -7.893  -0.389  0.00  0.00    +0.020 C 
ATOM     21  C   LIG    1        1.555  -7.750  -1.712  0.00  0.00    +0.020 C 
ATOM     22  C   LIG    1        2.193  -6.349  -1.651  0.00  0.00    +0.108 C 
ENDBRANCH  14  18
BRANCH  16  23
ATOM     23  N   LIG    1        0.922  -1.593   1.627  0.00  0.00    -0.299 N 
ATOM     24  C   LIG    1        0.776  -0.156   1.278  0.00  0.00    +0.108 C 
ATOM     25  C   LIG    1        1.009   0.595   2.606  0.00  0.00    +0.020 C 
ATOM     26  C   LIG    1        1.854  -0.371   3.467  0.00  0.00    +0.020 C 
ATOM     27  C   LIG    1        2.058  -1.622   2.585  0.00  0.00    +0.108 C 
ENDBRANCH  16  23
ENDBRANCH  10  12
ENDBRANCH   6  10
BRANCH   1  28
ATOM     28  S   LIG    1        4.855  -7.026  -8.302  0.00  0.00    -0.089 S 
BRANCH  28  29
ATOM     29  C   LIG    1        4.069  -6.453  -9.829  0.00  0.00    +0.172 C 
BRANCH  29  32
ATOM     30  N   LIG    1        4.080  -7.057 -12.227  0.00  0.00    -0.285 N 
ATOM     31  H   LIG    1        3.504  -6.293 -12.391  0.00  0.00    +0.155 HD
ATOM     32  C   LIG    1        4.536  -7.301 -10.983  0.00  0.00    +0.227 C 
ATOM     33  O   LIG    1        5.323  -8.205 -10.793  0.00  0.00    -0.275 OA
BRANCH  30  39
ATOM     34  C   LIG    1        2.936  -9.208 -16.498  0.00  0.00    +0.044 C 
ATOM     35  C   LIG    1        3.900  -8.965 -15.365  0.00  0.00    -0.046 A 
ATOM     36  C   LIG    1        5.139  -9.579 -15.369  0.00  0.00    +0.004 A 
ATOM     37  C   LIG    1        6.027  -9.358 -14.333  0.00  0.00    +0.002 A 
ATOM     38  C   LIG    1        5.679  -8.522 -13.290  0.00  0.00    +0.023 A 
ATOM     39  C   LIG    1        4.435  -7.904 -13.283  0.00  0.00    +0.037 A 
ATOM     40  C   LIG    1        3.543  -8.133 -14.322  0.00  0.00    -0.026 A 
ATOM     41  C   LIG    1        2.191  -7.469 -14.316  0.00  0.00    +0.046 C 
ENDBRANCH  30  39
ENDBRANCH  29  32
ENDBRANCH  28  29
ENDBRANCH   1  28
TORSDOF 8
