REMARK  Name = ZINC08399027
REMARK                            x       y       z     vdW  Elec       q    Type
REMARK                         _______ _______ _______ _____ _____    ______ ____
ROOT
ATOM      1  N   LIG    1       -9.018   4.590  -5.893  0.00  0.00    -0.331 N 
ATOM      2  C   LIG    1       -8.154   5.721  -6.259  0.00  0.00    +0.086 C 
ATOM      3  C   LIG    1       -6.750   5.204  -6.582  0.00  0.00    -0.060 C 
ATOM      4  N   LIG    1       -6.213   4.509  -5.394  0.00  0.00    +0.382 N 
ATOM      5  H   LIG    1       -6.197   5.164  -4.603  0.00  0.00    -0.082 HD
ATOM      6  C   LIG    1       -7.077   3.360  -5.048  0.00  0.00    -0.060 C 
ATOM      7  C   LIG    1       -8.480   3.878  -4.725  0.00  0.00    +0.086 C 
ENDROOT
BRANCH   1  13
ATOM      8  C   LIG    1      -11.376   4.510  -6.428  0.00  0.00    +0.141 A 
ATOM      9  C   LIG    1      -12.673   4.936  -6.193  0.00  0.00    +0.047 A 
ATOM     10  C   LIG    1      -12.928   5.861  -5.197  0.00  0.00    +0.004 A 
ATOM     11  C   LIG    1      -11.890   6.364  -4.434  0.00  0.00    +0.002 A 
ATOM     12  C   LIG    1      -10.594   5.941  -4.659  0.00  0.00    +0.027 A 
ATOM     13  C   LIG    1      -10.330   5.017  -5.660  0.00  0.00    +0.072 A 
BRANCH   8  14
ATOM     14  O   LIG    1      -11.124   3.600  -7.406  0.00  0.00    -0.490 OA
BRANCH  14  15
ATOM     15  C   LIG    1      -12.245   3.124  -8.154  0.00  0.00    +0.229 C 
BRANCH  15  16
ATOM     16  C   LIG    1      -11.769   2.115  -9.201  0.00  0.00    +0.041 C 
BRANCH  16  18
ATOM     17  C   LIG    1      -12.493   0.597 -11.048  0.00  0.00    +0.004 C 
ATOM     18  C   LIG    1      -12.969   1.606 -10.002  0.00  0.00    -0.000 C 
ENDBRANCH  16  18
ENDBRANCH  15  16
ENDBRANCH  14  15
ENDBRANCH   8  14
ENDBRANCH   1  13
BRANCH   4  19
ATOM     19  C   LIG    1       -4.835   4.044  -5.660  0.00  0.00    -0.077 C 
BRANCH  19  20
ATOM     20  C   LIG    1       -4.225   3.533  -4.353  0.00  0.00    +0.000 C 
BRANCH  20  21
ATOM     21  C   LIG    1       -2.790   3.067  -4.607  0.00  0.00    +0.106 C 
BRANCH  21  22
ATOM     22  N   LIG    1       -2.207   2.577  -3.356  0.00  0.00    -0.291 N 
ATOM     23  C   LIG    1       -2.351   1.166  -3.009  0.00  0.00    +0.203 C 
ATOM     24  C   LIG    1       -1.254   0.742  -2.073  0.00  0.00    +0.234 C 
ATOM     25  N   LIG    1       -0.746   1.584  -1.169  0.00  0.00    -0.289 N 
ATOM     26  C   LIG    1       -0.013   1.086   0.008  0.00  0.00    +0.108 C 
ATOM     27  C   LIG    1       -0.753   1.592   1.255  0.00  0.00    +0.019 C 
ATOM     28  C   LIG    1       -0.886   3.114   1.199  0.00  0.00    +0.004 C 
ATOM     29  C   LIG    1       -1.658   3.539  -0.055  0.00  0.00    +0.032 C 
ATOM     30  C   LIG    1       -0.903   3.035  -1.284  0.00  0.00    +0.162 C 
ATOM     31  O   LIG    1       -0.821  -0.389  -2.140  0.00  0.00    -0.274 OA
ATOM     32  C   LIG    1       -1.554   3.437  -2.561  0.00  0.00    +0.237 C 
ATOM     33  O   LIG    1       -1.490   4.600  -2.900  0.00  0.00    -0.274 OA
ENDBRANCH  21  22
ENDBRANCH  20  21
ENDBRANCH  19  20
ENDBRANCH   4  19
TORSDOF 9
