REMARK  Name = ZINC07923175
REMARK                            x       y       z     vdW  Elec       q    Type
REMARK                         _______ _______ _______ _____ _____    ______ ____
ROOT
ATOM      1  C   LIG    1       -0.722  -0.290   1.292  0.00  0.00    +0.225 C 
ATOM      2  N   LIG    1       -0.175   0.077   2.468  0.00  0.00    -0.315 N 
ATOM      3  H   LIG    1        0.685   0.525   2.483  0.00  0.00    +0.149 HD
ATOM      4  O   LIG    1       -1.798  -0.850   1.273  0.00  0.00    -0.275 OA
ENDROOT
BRANCH   1   5
ATOM      5  C   LIG    1        0.002  -0.004   0.002  0.00  0.00    +0.135 C 
BRANCH   5   9
ATOM      6  C   LIG    1        0.585   4.208  -0.402  0.00  0.00    +0.000 A 
ATOM      7  C   LIG    1        1.655   3.346  -0.545  0.00  0.00    +0.000 A 
ATOM      8  C   LIG    1        1.467   1.983  -0.414  0.00  0.00    +0.005 A 
ATOM      9  C   LIG    1        0.208   1.482  -0.140  0.00  0.00    -0.031 A 
ATOM     10  C   LIG    1       -0.864   2.344  -0.003  0.00  0.00    +0.005 A 
ATOM     11  C   LIG    1       -0.675   3.708  -0.129  0.00  0.00    +0.000 A 
ENDBRANCH   5   9
BRANCH   5  12
ATOM     12  C   LIG    1       -0.817  -0.511  -1.157  0.00  0.00    -0.031 A 
ATOM     13  C   LIG    1       -2.134  -0.116  -1.298  0.00  0.00    +0.005 A 
ATOM     14  C   LIG    1       -2.884  -0.577  -2.364  0.00  0.00    +0.000 A 
ATOM     15  C   LIG    1       -2.320  -1.442  -3.283  0.00  0.00    +0.000 A 
ATOM     16  C   LIG    1       -1.005  -1.842  -3.138  0.00  0.00    +0.000 A 
ATOM     17  C   LIG    1       -0.253  -1.376  -2.076  0.00  0.00    +0.005 A 
ENDBRANCH   5  12
ENDBRANCH   1   5
BRANCH   2  18
ATOM     18  C   LIG    1       -0.879  -0.200   3.722  0.00  0.00    +0.102 C 
BRANCH  18  19
ATOM     19  C   LIG    1       -0.048   0.315   4.899  0.00  0.00    +0.000 C 
BRANCH  19  20
ATOM     20  C   LIG    1       -0.783   0.025   6.209  0.00  0.00    -0.077 C 
BRANCH  20  21
ATOM     21  N   LIG    1        0.022   0.548   7.332  0.00  0.00    +0.380 N 
ATOM     22  H   LIG    1        0.260   1.529   7.144  0.00  0.00    -0.082 HD
ATOM     23  C   LIG    1       -0.756   0.475   8.587  0.00  0.00    -0.079 C 
ATOM     24  C   LIG    1        0.052   1.129   9.710  0.00  0.00    -0.019 C 
ATOM     25  C   LIG    1        1.378   0.383   9.881  0.00  0.00    -0.004 C 
ATOM     26  C   LIG    1        2.140   0.402   8.553  0.00  0.00    -0.019 C 
ATOM     27  C   LIG    1        1.272  -0.231   7.463  0.00  0.00    -0.079 C 
ENDBRANCH  20  21
ENDBRANCH  19  20
ENDBRANCH  18  19
ENDBRANCH   2  18
TORSDOF 7
