REMARK  Name = ZINC08048290
REMARK                            x       y       z     vdW  Elec       q    Type
REMARK                         _______ _______ _______ _____ _____    ______ ____
ROOT
ATOM      1  C   LIG    1        4.764   2.692  -0.029  0.00  0.00    +0.263 C 
ATOM      2  O   LIG    1        5.448   1.684  -0.042  0.00  0.00    -0.280 OA
ENDROOT
BRANCH   1   9
ATOM      3  C   LIG    1       -1.203   1.746   0.017  0.00  0.00    +0.001 A 
ATOM      4  C   LIG    1       -1.229   3.134   0.032  0.00  0.00    +0.004 A 
ATOM      5  C   LIG    1       -0.058   3.861   0.024  0.00  0.00    +0.047 A 
ATOM      6  C   LIG    1        1.165   3.202   0.008  0.00  0.00    +0.136 A 
ATOM      7  C   LIG    1        1.186   1.794   0.000  0.00  0.00    +0.021 A 
ATOM      8  C   LIG    1        2.599   1.418  -0.015  0.00  0.00    +0.062 A 
ATOM      9  C   LIG    1        3.299   2.585  -0.016  0.00  0.00    +0.179 A 
ATOM     10  O   LIG    1        2.444   3.628  -0.002  0.00  0.00    -0.451 OA
ATOM     11  C   LIG    1       -0.013   1.076   0.008  0.00  0.00    +0.011 A 
ENDBRANCH   1   9
BRANCH   1  12
ATOM     12  C   LIG    1        5.403   4.014  -0.028  0.00  0.00    +0.179 A 
ATOM     13  C   LIG    1        6.745   4.235  -0.040  0.00  0.00    +0.062 A 
ATOM     14  C   LIG    1        6.917   5.686  -0.034  0.00  0.00    +0.021 A 
ATOM     15  C   LIG    1        8.027   6.536  -0.041  0.00  0.00    +0.011 A 
ATOM     16  C   LIG    1        7.843   7.890  -0.032  0.00  0.00    +0.001 A 
ATOM     17  C   LIG    1        6.562   8.426  -0.016  0.00  0.00    +0.004 A 
ATOM     18  C   LIG    1        5.455   7.605  -0.010  0.00  0.00    +0.047 A 
ATOM     19  C   LIG    1        5.616   6.225  -0.018  0.00  0.00    +0.136 A 
ATOM     20  O   LIG    1        4.748   5.194  -0.021  0.00  0.00    -0.451 OA
ENDBRANCH   1  12
TORSDOF 2
