REMARK  Name = ZINC06898809
REMARK                            x       y       z     vdW  Elec       q    Type
REMARK                         _______ _______ _______ _____ _____    ______ ____
ROOT
ATOM      1  C   LIG    1       -0.025   3.802   0.011  0.00  0.00    +0.161 A 
ATOM      2  C   LIG    1       -1.238   3.128   0.021  0.00  0.00    +0.051 A 
ATOM      3  C   LIG    1       -1.223   1.741   0.018  0.00  0.00    +0.023 A 
ATOM      4  C   LIG    1       -0.013   1.076   0.017  0.00  0.00    +0.113 A 
ATOM      5  N   LIG    1        1.127   1.742   0.007  0.00  0.00    -0.237 NA
ATOM      6  C   LIG    1        1.159   3.064   0.004  0.00  0.00    +0.168 A 
ENDROOT
BRANCH   6   7
ATOM      7  N   LIG    1        2.387   3.727  -0.006  0.00  0.00    -0.251 N 
ATOM      8  H   LIG    1        2.415   4.697  -0.008  0.00  0.00    +0.158 HD
ATOM      9  C   LIG    1        3.534   3.019  -0.012  0.00  0.00    +0.309 C 
ATOM     10  N   LIG    1        4.721   3.659  -0.022  0.00  0.00    -0.269 N 
ATOM     11  H   LIG    1        4.750   4.626  -0.092  0.00  0.00    +0.156 HD
ATOM     12  O   LIG    1        3.499   1.804  -0.009  0.00  0.00    -0.252 OA
BRANCH  10  13
ATOM     13  C   LIG    1        5.911   2.928   0.069  0.00  0.00    +0.036 A 
ATOM     14  C   LIG    1        6.999   3.455   0.754  0.00  0.00    +0.023 A 
ATOM     15  C   LIG    1        8.175   2.734   0.852  0.00  0.00    +0.003 A 
ATOM     16  C   LIG    1        8.280   1.492   0.260  0.00  0.00    +0.019 A 
ATOM     17  C   LIG    1        7.194   0.957  -0.436  0.00  0.00    +0.054 A 
ATOM     18  C   LIG    1        6.005   1.681  -0.529  0.00  0.00    +0.042 A 
BRANCH  17  19
ATOM     19  C   LIG    1        7.300  -0.332  -1.052  0.00  0.00    +0.099 C 
ATOM     20  N   LIG    1        7.384  -1.354  -1.540  0.00  0.00    -0.191 NA
ENDBRANCH  17  19
ENDBRANCH  10  13
ENDBRANCH   6   7
BRANCH   1  21
ATOM     21  O   LIG    1        0.009   5.162   0.007  0.00  0.00    -0.484 OA
BRANCH  21  22
ATOM     22  C   LIG    1       -1.247   5.842   0.015  0.00  0.00    +0.264 C 
BRANCH  22  26
ATOM     23  C   LIG    1       -0.581  10.062  -0.001  0.00  0.00    +0.000 A 
ATOM     24  C   LIG    1       -0.698   9.376  -1.195  0.00  0.00    +0.000 A 
ATOM     25  C   LIG    1       -0.913   8.011  -1.190  0.00  0.00    +0.007 A 
ATOM     26  C   LIG    1       -1.012   7.331   0.009  0.00  0.00    -0.010 A 
ATOM     27  C   LIG    1       -0.901   8.018   1.204  0.00  0.00    +0.007 A 
ATOM     28  C   LIG    1       -0.680   9.382   1.199  0.00  0.00    +0.000 A 
ENDBRANCH  22  26
ENDBRANCH  21  22
ENDBRANCH   1  21
TORSDOF 6
