REMARK  Name = ZINC05915905
REMARK                            x       y       z     vdW  Elec       q    Type
REMARK                         _______ _______ _______ _____ _____    ______ ____
ROOT
ATOM      1  C   LIG    1        2.474   1.078  -0.016  0.00  0.00    +0.012 C 
ATOM      2  C   LIG    1        2.494  -0.274  -0.024  0.00  0.00    +0.052 C 
ENDROOT
BRANCH   1   5
ATOM      3  C   LIG    1       -0.043   3.858   0.023  0.00  0.00    +0.162 A 
ATOM      4  C   LIG    1        1.166   3.193   0.008  0.00  0.00    +0.057 A 
ATOM      5  C   LIG    1        1.190   1.793   0.000  0.00  0.00    -0.021 A 
ATOM      6  C   LIG    1       -0.013   1.076   0.008  0.00  0.00    +0.012 A 
ATOM      7  C   LIG    1       -1.214   1.748   0.017  0.00  0.00    +0.050 A 
ATOM      8  C   LIG    1       -1.237   3.137   0.031  0.00  0.00    +0.158 A 
BRANCH   3  10
ATOM      9  C   LIG    1        1.189   5.893   0.023  0.00  0.00    +0.277 C 
ATOM     10  O   LIG    1       -0.071   5.218   0.031  0.00  0.00    -0.491 OA
ENDBRANCH   3  10
BRANCH   8  11
ATOM     11  O   LIG    1       -2.425   3.795   0.045  0.00  0.00    -0.503 OA
ATOM     12  H   LIG    1       -2.778   3.990  -0.834  0.00  0.00    +0.292 HD
ENDBRANCH   8  11
ENDBRANCH   1   5
BRANCH   2  13
ATOM     13  C   LIG    1        3.733  -0.964  -0.040  0.00  0.00    +0.186 C 
ATOM     14  O   LIG    1        4.778  -0.339  -0.047  0.00  0.00    -0.287 OA
BRANCH  13  15
ATOM     15  C   LIG    1        3.756  -2.442  -0.049  0.00  0.00    +0.022 A 
ATOM     16  C   LIG    1        2.560  -3.162  -0.036  0.00  0.00    +0.013 A 
ATOM     17  C   LIG    1        2.587  -4.540  -0.049  0.00  0.00    +0.021 A 
ATOM     18  C   LIG    1        3.799  -5.212  -0.064  0.00  0.00    +0.041 A 
ATOM     19 CL   LIG    1        3.826  -6.947  -0.074  0.00  0.00    -0.084 Cl
ATOM     20  C   LIG    1        4.990  -4.503  -0.072  0.00  0.00    +0.021 A 
ATOM     21  C   LIG    1        4.974  -3.124  -0.065  0.00  0.00    +0.013 A 
ENDBRANCH  13  15
ENDBRANCH   2  13
TORSDOF 5
