REMARK  Name = ZINC06093626
REMARK                            x       y       z     vdW  Elec       q    Type
REMARK                         _______ _______ _______ _____ _____    ______ ____
ROOT
ATOM      1  C   LIG    1       -0.809   1.770   0.895  0.00  0.00    +0.019 C 
ENDROOT
BRANCH   1   4
ATOM      2  C   LIG    1        0.074   5.469   1.124  0.00  0.00    +0.008 A 
ATOM      3  C   LIG    1        0.068   4.131   1.474  0.00  0.00    +0.011 A 
ATOM      4  C   LIG    1       -0.647   3.259   0.723  0.00  0.00    -0.008 A 
ATOM      5  S   LIG    1       -1.339   4.328  -0.528  0.00  0.00    -0.101 S 
ATOM      6  C   LIG    1       -0.636   5.868   0.041  0.00  0.00    +0.045 A 
ENDBRANCH   1   4
BRANCH   1   7
ATOM      7  C   LIG    1       -2.289   1.439   1.097  0.00  0.00    -0.077 C 
BRANCH   7   8
ATOM      8  N   LIG    1       -2.422  -0.002   1.372  0.00  0.00    +0.379 N 
ATOM      9  H   LIG    1       -1.928  -0.531   0.644  0.00  0.00    -0.090 HD
ATOM     10  H   LIG    1       -3.405  -0.270   1.367  0.00  0.00    -0.090 HD
ATOM     11  H   LIG    1       -2.014  -0.224   2.279  0.00  0.00    -0.090 HD
ENDBRANCH   7   8
ENDBRANCH   1   7
BRANCH   1  12
ATOM     12  C   LIG    1       -0.293   1.053  -0.354  0.00  0.00    +0.127 C 
BRANCH  12  13
ATOM     13  C   LIG    1        1.196   1.256  -0.470  0.00  0.00    +0.305 C 
ATOM     14  O   LIG    1        1.780   1.926   0.348  0.00  0.00    -0.251 OA
BRANCH  13  15
ATOM     15  O   LIG    1        1.873   0.693  -1.483  0.00  0.00    -0.481 OA
ATOM     16  H   LIG    1        1.420   0.173  -2.118  0.00  0.00    +0.295 HD
ENDBRANCH  13  15
ENDBRANCH  12  13
ENDBRANCH   1  12
TORSDOF 6
