REMARK  Name = ZINC05931502
REMARK                            x       y       z     vdW  Elec       q    Type
REMARK                         _______ _______ _______ _____ _____    ______ ____
ROOT
ATOM      1  C   LIG    1        5.487  -0.780  -4.797  0.00  0.00    +0.088 C 
ATOM      2  C   LIG    1        5.542  -0.257  -3.384  0.00  0.00    +0.130 A 
ATOM      3  N   LIG    1        6.716  -0.151  -2.791  0.00  0.00    -0.216 NA
ATOM      4  C   LIG    1        6.820   0.304  -1.546  0.00  0.00    +0.147 A 
ATOM      5  C   LIG    1        5.646   0.674  -0.869  0.00  0.00    +0.147 A 
ATOM      6  C   LIG    1        4.420   0.537  -1.542  0.00  0.00    +0.168 A 
ATOM      7  N   LIG    1        3.457   0.967  -0.665  0.00  0.00    -0.286 N 
ATOM      8  C   LIG    1        4.087   1.335   0.487  0.00  0.00    +0.203 A 
ATOM      9  N   LIG    1        5.372   1.162   0.365  0.00  0.00    -0.231 NA
ATOM     10  N   LIG    1        4.416   0.078  -2.789  0.00  0.00    -0.213 NA
ENDROOT
BRANCH   7  11
ATOM     11  C1* LIG    1        2.015   1.015  -0.917  0.00  0.00    +0.253 C 
ATOM     12  C2* LIG    1        1.371  -0.357  -0.622  0.00  0.00    +0.195 C 
ATOM     13  C3* LIG    1        0.002  -0.004   0.002  0.00  0.00    +0.178 C 
ATOM     14  C4* LIG    1       -0.019   1.541   0.011  0.00  0.00    +0.177 C 
ATOM     15  O4* LIG    1        1.372   1.929  -0.001  0.00  0.00    -0.346 OA
BRANCH  12  16
ATOM     16  O2* LIG    1        1.193  -1.097  -1.832  0.00  0.00    -0.385 OA
ATOM     17  H2* LIG    1        0.738  -1.942  -1.713  0.00  0.00    +0.210 HD
ENDBRANCH  12  16
BRANCH  13  18
ATOM     18  O3* LIG    1       -1.064  -0.515  -0.800  0.00  0.00    -0.386 OA
ATOM     19  H3* LIG    1       -1.945  -0.271  -0.485  0.00  0.00    +0.210 HD
ENDBRANCH  13  18
BRANCH  14  20
ATOM     20  C5* LIG    1       -0.706   2.057   1.276  0.00  0.00    +0.190 C 
BRANCH  20  21
ATOM     21  O5* LIG    1       -0.819   3.480   1.210  0.00  0.00    -0.392 OA
ATOM     22  H5* LIG    1       -1.246   3.877   1.982  0.00  0.00    +0.210 HD
ENDBRANCH  20  21
ENDBRANCH  14  20
ENDBRANCH   7  11
BRANCH   4  23
ATOM     23  N   LIG    1        8.056   0.410  -0.932  0.00  0.00    -0.341 N 
ATOM     24  H   LIG    1        8.859   0.152  -1.411  0.00  0.00    +0.144 HD
ATOM     25  H   LIG    1        8.221   1.364  -0.680  0.00  0.00    +0.144 HD
ENDBRANCH   4  23
TORSDOF 6
