REMARK  Name = ZINC08443064
REMARK                            x       y       z     vdW  Elec       q    Type
REMARK                         _______ _______ _______ _____ _____    ______ ____
ROOT
ATOM      1  C   LIG    1        3.625  -1.289   0.060  0.00  0.00    +0.072 A 
ATOM      2  C   LIG    1        2.413  -0.582   0.079  0.00  0.00    +0.044 A 
ATOM      3  C   LIG    1        2.431   0.803  -0.017  0.00  0.00    +0.070 A 
ATOM      4  C   LIG    1        3.737   1.450  -0.141  0.00  0.00    +0.015 A 
ATOM      5  C   LIG    1        3.858   2.841  -0.237  0.00  0.00    +0.025 A 
ATOM      6  C   LIG    1        5.096   3.404  -0.345  0.00  0.00    +0.014 A 
ATOM      7  I   LIG    1        5.275   5.486  -0.497  0.00  0.00    -0.044 I 
ATOM      8  C   LIG    1        6.242   2.611  -0.354  0.00  0.00    +0.016 A 
ATOM      9  C   LIG    1        6.161   1.257  -0.257  0.00  0.00    +0.029 A 
ATOM     10  C   LIG    1        4.901   0.640  -0.144  0.00  0.00    +0.073 A 
ATOM     11  N   LIG    1        4.790  -0.686  -0.047  0.00  0.00    -0.247 NA
ENDROOT
BRANCH   1  18
ATOM     12  C   LIG    1        2.373  -3.434   0.282  0.00  0.00    +0.011 A 
ATOM     13  C   LIG    1        2.347  -4.810   0.371  0.00  0.00    +0.016 A 
ATOM     14  C   LIG    1        3.530  -5.530   0.354  0.00  0.00    +0.018 A 
ATOM     15 BR   LIG    1        3.488  -7.415   0.486  0.00  0.00    -0.050 Br
ATOM     16  C   LIG    1        4.744  -4.873   0.242  0.00  0.00    +0.016 A 
ATOM     17  C   LIG    1        4.780  -3.497   0.146  0.00  0.00    +0.011 A 
ATOM     18  C   LIG    1        3.592  -2.768   0.163  0.00  0.00    +0.000 A 
ENDBRANCH   1  18
BRANCH   3  19
ATOM     19  C   LIG    1        1.181   1.591  -0.001  0.00  0.00    +0.338 C 
ATOM     20  O   LIG    1        1.228   2.804   0.018  0.00  0.00    -0.245 OA
BRANCH  19  21
ATOM     21  O   LIG    1       -0.011   0.963  -0.007  0.00  0.00    -0.477 OA
ATOM     22  H   LIG    1       -0.048   0.027  -0.022  0.00  0.00    +0.295 HD
ENDBRANCH  19  21
ENDBRANCH   3  19
TORSDOF 3
