REMARK  Name = ZINC05912566
REMARK                            x       y       z     vdW  Elec       q    Type
REMARK                         _______ _______ _______ _____ _____    ______ ____
ROOT
ATOM      1  C   LIG    1       -4.215  -0.237  -2.574  0.00  0.00    +0.120 C 
ATOM      2  C   LIG    1       -5.559  -0.907  -2.406  0.00  0.00    -0.006 A 
ATOM      3  C   LIG    1       -5.939  -2.121  -1.872  0.00  0.00    +0.008 A 
ATOM      4  C   LIG    1       -7.275  -2.478  -1.851  0.00  0.00    +0.015 A 
ATOM      5  C   LIG    1       -8.229  -1.618  -2.365  0.00  0.00    +0.018 A 
ATOM      6 BR   LIG    1      -10.056  -2.108  -2.337  0.00  0.00    -0.050 Br
ATOM      7  C   LIG    1       -7.848  -0.401  -2.901  0.00  0.00    +0.021 A 
ATOM      8  C   LIG    1       -6.515  -0.045  -2.921  0.00  0.00    -0.015 A 
ATOM      9  C   LIG    1       -5.790   1.182  -3.422  0.00  0.00    +0.197 C 
ATOM     10  O   LIG    1       -4.493   1.157  -2.799  0.00  0.00    -0.360 OA
ENDROOT
BRANCH   1  11
ATOM     11  C   LIG    1       -3.488  -0.819  -3.758  0.00  0.00    -0.011 A 
ATOM     12  C   LIG    1       -3.048   0.009  -4.774  0.00  0.00    +0.009 A 
ATOM     13  C   LIG    1       -2.381  -0.524  -5.861  0.00  0.00    +0.039 A 
ATOM     14  C   LIG    1       -2.153  -1.888  -5.932  0.00  0.00    +0.123 A 
ATOM     15  F   LIG    1       -1.501  -2.409  -6.994  0.00  0.00    -0.205 F 
ATOM     16  C   LIG    1       -2.594  -2.716  -4.914  0.00  0.00    +0.039 A 
ATOM     17  C   LIG    1       -3.256  -2.181  -3.826  0.00  0.00    +0.009 A 
ENDBRANCH   1  11
BRANCH   1  18
ATOM     18  C   LIG    1       -3.378  -0.410  -1.305  0.00  0.00    +0.043 C 
BRANCH  18  19
ATOM     19  C   LIG    1       -2.042   0.316  -1.473  0.00  0.00    -0.015 C 
BRANCH  19  20
ATOM     20  C   LIG    1       -1.204   0.142  -0.204  0.00  0.00    -0.079 C 
BRANCH  20  22
ATOM     21  C   LIG    1       -0.160   2.284  -0.480  0.00  0.00    -0.097 C 
ATOM     22  N   LIG    1        0.079   0.839  -0.365  0.00  0.00    +0.376 N 
ATOM     23  H   LIG    1        0.539   0.507  -1.200  0.00  0.00    -0.083 HD
ATOM     24  C   LIG    1        0.930   0.574   0.802  0.00  0.00    -0.097 C 
ENDBRANCH  20  22
ENDBRANCH  19  20
ENDBRANCH  18  19
ENDBRANCH   1  18
TORSDOF 5
