REMARK  Name = ZINC06070256
REMARK                            x       y       z     vdW  Elec       q    Type
REMARK                         _______ _______ _______ _____ _____    ______ ____
ROOT
ATOM      1  C   LIG    1       -0.259   1.280   1.168  0.00  0.00    +0.044 C 
ATOM      2  C   LIG    1       -0.219  -0.213   0.968  0.00  0.00    -0.046 A 
ATOM      3  C   LIG    1       -0.226  -0.737  -0.313  0.00  0.00    +0.014 A 
ATOM      4  C   LIG    1       -0.166  -2.096  -0.503  0.00  0.00    +0.036 A 
ATOM      5  C   LIG    1       -0.043  -2.950   0.608  0.00  0.00    +0.176 A 
ATOM      6  O   LIG    1        0.262  -4.255   0.363  0.00  0.00    -0.451 OA
ATOM      7  C   LIG    1       -0.644  -4.996  -0.325  0.00  0.00    +0.146 A 
ATOM      8  C   LIG    1       -1.794  -5.480   0.269  0.00  0.00    +0.048 A 
ATOM      9  C   LIG    1       -2.688  -6.232  -0.475  0.00  0.00    +0.013 A 
ATOM     10  C   LIG    1       -2.447  -6.507  -1.808  0.00  0.00    +0.024 A 
ATOM     11  C   LIG    1       -1.297  -6.030  -2.425  0.00  0.00    +0.143 A 
ATOM     12  C   LIG    1       -0.394  -5.272  -1.681  0.00  0.00    +0.143 A 
ATOM     13  C   LIG    1        0.850  -4.723  -2.270  0.00  0.00    +0.347 C 
ATOM     14  O   LIG    1        0.947  -3.357  -2.227  0.00  0.00    -0.456 OA
ATOM     15  O   LIG    1        1.715  -5.428  -2.752  0.00  0.00    -0.245 OA
ATOM     16  C   LIG    1       -0.093  -2.427   1.886  0.00  0.00    +0.160 A 
ATOM     17  C   LIG    1       -0.296  -2.722  -1.870  0.00  0.00    +0.271 C 
ATOM     18  C   LIG    1       -0.170  -1.053   2.065  0.00  0.00    +0.052 A 
ENDROOT
BRANCH  11  19
ATOM     19  O   LIG    1       -1.057  -6.297  -3.733  0.00  0.00    -0.494 OA
ATOM     20  C   LIG    1       -0.343  -7.499  -4.029  0.00  0.00    +0.277 C 
ENDBRANCH  11  19
BRANCH  16  21
ATOM     21  O   LIG    1       -0.061  -3.255   2.964  0.00  0.00    -0.503 OA
ATOM     22  H   LIG    1        0.830  -3.443   3.289  0.00  0.00    +0.292 HD
ENDBRANCH  16  21
BRANCH  10  23
ATOM     23  C   LIG    1       -3.436  -7.327  -2.596  0.00  0.00    +0.148 C 
BRANCH  23  24
ATOM     24  O   LIG    1       -4.169  -8.172  -1.707  0.00  0.00    -0.387 OA
ATOM     25  H   LIG    1       -4.669  -7.693  -1.032  0.00  0.00    +0.210 HD
ENDBRANCH  23  24
BRANCH  23  26
ATOM     26  C   LIG    1       -4.404  -6.395  -3.328  0.00  0.00    +0.039 C 
BRANCH  26  27
ATOM     27  C   LIG    1       -5.359  -7.225  -4.188  0.00  0.00    -0.014 C 
ATOM     28  C   LIG    1       -4.567  -7.933  -5.290  0.00  0.00    +0.007 C 
ATOM     29  C   LIG    1       -6.404  -6.305  -4.822  0.00  0.00    +0.007 C 
ENDBRANCH  26  27
ENDBRANCH  23  26
ENDBRANCH  10  23
TORSDOF 6
