REMARK  Name = ZINC06773541
REMARK                            x       y       z     vdW  Elec       q    Type
REMARK                         _______ _______ _______ _____ _____    ______ ____
ROOT
ATOM      1  C   LIG    1       -1.274   2.069   0.031  0.00  0.00    +0.131 A 
ATOM      2  C   LIG    1       -0.017   1.413   0.010  0.00  0.00    +0.040 A 
ATOM      3  C   LIG    1        1.188   2.121   0.002  0.00  0.00    +0.013 A 
ATOM      4  C   LIG    1        2.370   1.439  -0.013  0.00  0.00    +0.001 A 
ATOM      5  C   LIG    1        2.392   0.047  -0.021  0.00  0.00    +0.002 A 
ATOM      6  C   LIG    1        1.234  -0.673  -0.013  0.00  0.00    +0.028 A 
ATOM      7  C   LIG    1        0.002  -0.004   0.002  0.00  0.00    +0.077 A 
ATOM      8  N   LIG    1       -1.163  -0.666   0.010  0.00  0.00    -0.225 NA
ATOM      9  C   LIG    1       -2.308  -0.005   0.025  0.00  0.00    +0.198 A 
ATOM     10  N   LIG    1       -2.371   1.328   0.033  0.00  0.00    -0.209 NA
ENDROOT
BRANCH   9  11
ATOM     11  C   LIG    1       -3.568  -0.772   0.034  0.00  0.00    +0.172 A 
ATOM     12  C   LIG    1       -3.677  -2.129   0.028  0.00  0.00    +0.053 A 
ATOM     13  C   LIG    1       -5.053  -2.425   0.041  0.00  0.00    +0.042 A 
ATOM     14  C   LIG    1       -5.710  -1.247   0.053  0.00  0.00    +0.196 A 
ATOM     15  O   LIG    1       -4.811  -0.252   0.055  0.00  0.00    -0.460 OA
ENDBRANCH   9  11
BRANCH   1  16
ATOM     16  N   LIG    1       -1.352   3.446   0.040  0.00  0.00    -0.324 N 
ATOM     17  H   LIG    1       -0.541   3.978   0.031  0.00  0.00    +0.148 HD
BRANCH  16  18
ATOM     18  C   LIG    1       -2.660   4.105   0.062  0.00  0.00    +0.138 C 
BRANCH  18  22
ATOM     19  C   LIG    1       -2.118   8.342   0.076  0.00  0.00    +0.000 A 
ATOM     20  C   LIG    1       -2.223   7.663  -1.123  0.00  0.00    +0.000 A 
ATOM     21  C   LIG    1       -2.398   6.292  -1.128  0.00  0.00    +0.005 A 
ATOM     22  C   LIG    1       -2.469   5.600   0.067  0.00  0.00    -0.030 A 
ATOM     23  C   LIG    1       -2.370   6.280   1.266  0.00  0.00    +0.005 A 
ATOM     24  C   LIG    1       -2.189   7.651   1.271  0.00  0.00    +0.000 A 
ENDBRANCH  18  22
ENDBRANCH  16  18
ENDBRANCH   1  16
TORSDOF 4
