REMARK  Name = ZINC07194666
REMARK                            x       y       z     vdW  Elec       q    Type
REMARK                         _______ _______ _______ _____ _____    ______ ____
ROOT
ATOM      1  C   LIG    1       -1.203   1.744   0.017  0.00  0.00    +0.046 A 
ATOM      2  C   LIG    1       -0.013   1.076   0.008  0.00  0.00    +0.015 A 
ATOM      3  C   LIG    1        1.188   1.794   0.000  0.00  0.00    +0.022 A 
ATOM      4  C   LIG    1        2.480   1.104  -0.016  0.00  0.00    -0.020 A 
ATOM      5  C   LIG    1        3.610   1.857  -0.025  0.00  0.00    +0.097 A 
ATOM      6  C   LIG    1        3.515   3.264  -0.016  0.00  0.00    +0.338 A 
ATOM      7  O   LIG    1        2.329   3.891  -0.000  0.00  0.00    -0.422 OA
ATOM      8  O   LIG    1        4.537   3.928  -0.023  0.00  0.00    -0.245 OA
ATOM      9  C   LIG    1        1.167   3.201   0.008  0.00  0.00    +0.143 A 
ATOM     10  C   LIG    1       -0.050   3.864   0.024  0.00  0.00    +0.092 A 
ATOM     11  C   LIG    1       -1.230   3.137   0.032  0.00  0.00    +0.120 A 
ENDROOT
BRANCH  11  12
ATOM     12  O   LIG    1       -2.421   3.788   0.046  0.00  0.00    -0.507 OA
ATOM     13  H   LIG    1       -2.775   3.980  -0.833  0.00  0.00    +0.292 HD
ENDBRANCH  11  12
BRANCH   4  14
ATOM     14  C   LIG    1        2.553  -0.401  -0.025  0.00  0.00    +0.112 C 
BRANCH  14  15
ATOM     15  S   LIG    1        2.565  -0.995  -1.734  0.00  0.00    -0.092 S 
BRANCH  15  16
ATOM     16  C   LIG    1        2.652  -2.733  -1.454  0.00  0.00    +0.159 A 
ATOM     17  N   LIG    1        2.696  -3.413  -0.315  0.00  0.00    -0.135 NA
ATOM     18  N   LIG    1        2.757  -4.673  -0.296  0.00  0.00    -0.149 NA
ATOM     19  C   LIG    1        2.782  -5.392  -1.400  0.00  0.00    +0.182 A 
ATOM     20  S   LIG    1        2.699  -4.088  -2.624  0.00  0.00    -0.048 S 
ENDBRANCH  15  16
ENDBRANCH  14  15
ENDBRANCH   4  14
TORSDOF 4
