REMARK  Name = ZINC06405865
REMARK                            x       y       z     vdW  Elec       q    Type
REMARK                         _______ _______ _______ _____ _____    ______ ____
ROOT
ATOM      1  S   LIG    1        2.704  -2.665   4.505  0.00  0.00    +0.086 S 
ATOM      2  O   LIG    1        3.632  -1.728   5.033  0.00  0.00    -0.151 OA
ATOM      3  O   LIG    1        3.098  -3.949   4.041  0.00  0.00    -0.151 OA
ENDROOT
BRANCH   1   7
ATOM      4  C   LIG    1        0.626  -0.618   1.042  0.00  0.00    +0.120 A 
ATOM      5  C   LIG    1        1.202   0.138   2.051  0.00  0.00    +0.047 A 
ATOM      6  C   LIG    1        1.835  -0.488   3.107  0.00  0.00    +0.032 A 
ATOM      7  C   LIG    1        1.895  -1.869   3.158  0.00  0.00    +0.108 A 
ATOM      8  C   LIG    1        1.322  -2.625   2.152  0.00  0.00    +0.032 A 
ATOM      9  C   LIG    1        0.682  -2.003   1.098  0.00  0.00    +0.047 A 
BRANCH   4  11
ATOM     10  C   LIG    1       -0.017   1.425   0.010  0.00  0.00    +0.277 C 
ATOM     11  O   LIG    1        0.002  -0.004   0.002  0.00  0.00    -0.495 OA
ENDBRANCH   4  11
ENDBRANCH   1   7
BRANCH   1  12
ATOM     12  N   LIG    1        1.565  -2.916   5.681  0.00  0.00    -0.050 NA
ATOM     13  H   LIG    1        1.678  -2.520   6.559  0.00  0.00    +0.191 HD
BRANCH  12  14
ATOM     14  N   LIG    1        0.437  -3.701   5.407  0.00  0.00    -0.182 N 
ATOM     15  H   LIG    1       -0.134  -3.483   4.654  0.00  0.00    +0.285 HD
BRANCH  14  16
ATOM     16  C   LIG    1        0.139  -4.780   6.206  0.00  0.00    +0.394 C 
ATOM     17  N   LIG    1        0.907  -5.072   7.218  0.00  0.00    -0.128 NA
ATOM     18  H   LIG    1        0.697  -5.833   7.782  0.00  0.00    +0.306 HD
BRANCH  16  19
ATOM     19  N   LIG    1       -0.968  -5.550   5.937  0.00  0.00    -0.288 N 
ATOM     20  H   LIG    1       -1.177  -6.311   6.501  0.00  0.00    +0.255 HD
ATOM     21  H   LIG    1       -1.539  -5.332   5.184  0.00  0.00    +0.255 HD
ENDBRANCH  16  19
ENDBRANCH  14  16
ENDBRANCH  12  14
ENDBRANCH   1  12
TORSDOF 6
