REMARK  Name = ZINC08214587
REMARK                            x       y       z     vdW  Elec       q    Type
REMARK                         _______ _______ _______ _____ _____    ______ ____
ROOT
ATOM      1  P   LIG    1       -0.021   1.666   0.011  0.00  0.00    +0.516 P 
ATOM      2  F   LIG    1        0.002  -0.004   0.002  0.00  0.00    -0.133 F 
ATOM      3  O   LIG    1        1.368   2.178   0.001  0.00  0.00    -0.223 OA
ENDROOT
BRANCH   1   4
ATOM      4  O   LIG    1       -0.799   2.199  -1.293  0.00  0.00    -0.281 OA
BRANCH   4   6
ATOM      5  C   LIG    1       -1.094   1.322  -3.526  0.00  0.00    +0.038 C 
ATOM      6  C   LIG    1       -0.227   2.181  -2.603  0.00  0.00    +0.124 C 
ATOM      7  C   LIG    1       -0.159   3.608  -3.149  0.00  0.00    +0.038 C 
ENDBRANCH   4   6
ENDBRANCH   1   4
BRANCH   1   8
ATOM      8  O   LIG    1       -0.774   2.185   1.336  0.00  0.00    -0.281 OA
BRANCH   8   9
ATOM      9  C   LIG    1       -0.529   1.642   2.635  0.00  0.00    +0.124 C 
ATOM     10  C   LIG    1       -1.827   1.059   3.197  0.00  0.00    +0.038 C 
ATOM     11  C   LIG    1       -0.021   2.747   3.562  0.00  0.00    +0.038 C 
ENDBRANCH   8   9
ENDBRANCH   1   8
TORSDOF 4
