REMARK  Name = ZINC06145324
REMARK                            x       y       z     vdW  Elec       q    Type
REMARK                         _______ _______ _______ _____ _____    ______ ____
ROOT
ATOM      1  C   LIG    1        0.757  -2.084  -1.321  0.00  0.00    +0.129 C 
ATOM      2  C   LIG    1       -0.643  -2.689  -1.436  0.00  0.00    +0.129 C 
ATOM      3  C   LIG    1       -1.365  -2.070  -2.635  0.00  0.00    +0.032 C 
ATOM      4  C   LIG    1       -0.578  -2.373  -3.911  0.00  0.00    +0.004 C 
ATOM      5  C   LIG    1        0.827  -1.785  -3.802  0.00  0.00    -0.024 C 
ATOM      6  C   LIG    1        0.746  -0.265  -3.655  0.00  0.00    -0.074 C 
ATOM      7  N   LIG    1        2.102   0.286  -3.572  0.00  0.00    +0.386 N 
ATOM      8  H   LIG    1        2.621  -0.018  -4.382  0.00  0.00    -0.081 HD
ATOM      9  C   LIG    1        2.064   1.752  -3.556  0.00  0.00    -0.073 C 
ATOM     10  C   LIG    1        3.474   2.308  -3.803  0.00  0.00    +0.019 C 
ATOM     11  C   LIG    1        4.428   1.589  -2.882  0.00  0.00    -0.022 A 
ATOM     12  C   LIG    1        5.785   1.927  -2.516  0.00  0.00    +0.003 A 
ATOM     13  C   LIG    1        6.631   2.981  -2.873  0.00  0.00    +0.010 A 
ATOM     14  C   LIG    1        7.887   2.985  -2.318  0.00  0.00    +0.001 A 
ATOM     15  C   LIG    1        8.309   1.996  -1.445  0.00  0.00    +0.002 A 
ATOM     16  C   LIG    1        7.493   0.941  -1.074  0.00  0.00    +0.026 A 
ATOM     17  C   LIG    1        6.212   0.912  -1.621  0.00  0.00    +0.047 A 
ATOM     18  N   LIG    1        5.174   0.036  -1.473  0.00  0.00    -0.359 N 
ATOM     19  H   LIG    1        5.189  -0.758  -0.915  0.00  0.00    +0.166 HD
ATOM     20  C   LIG    1        4.111   0.446  -2.229  0.00  0.00    +0.006 A 
ATOM     21  C   LIG    1        2.765  -0.221  -2.362  0.00  0.00    -0.020 C 
ATOM     22  C   LIG    1        2.938  -1.736  -2.477  0.00  0.00    -0.005 C 
ATOM     23  C   LIG    1        1.552  -2.382  -2.595  0.00  0.00    +0.005 C 
ENDROOT
BRANCH   1  24
ATOM     24  C   LIG    1        0.646  -0.593  -1.135  0.00  0.00    +0.313 C 
ATOM     25  O   LIG    1        1.479   0.000  -0.492  0.00  0.00    -0.250 OA
BRANCH  24  27
ATOM     26  C   LIG    1       -0.497   1.464  -1.361  0.00  0.00    +0.280 C 
ATOM     27  O   LIG    1       -0.379   0.077  -1.685  0.00  0.00    -0.468 OA
ENDBRANCH  24  27
ENDBRANCH   1  24
BRANCH   2  28
ATOM     28  O   LIG    1       -1.380  -2.417  -0.242  0.00  0.00    -0.391 OA
ATOM     29  H   LIG    1       -2.279  -2.772  -0.246  0.00  0.00    +0.210 HD
ENDBRANCH   2  28
TORSDOF 3
