REMARK  Name = ZINC06717042
REMARK                            x       y       z     vdW  Elec       q    Type
REMARK                         _______ _______ _______ _____ _____    ______ ____
ROOT
ATOM      1  C   LIG    1        0.208   0.327  -2.329  0.00  0.00    +0.039 A 
ATOM      2  C   LIG    1        0.291   1.303  -3.310  0.00  0.00    +0.038 A 
ATOM      3  C   LIG    1        1.508   1.942  -3.551  0.00  0.00    +0.061 A 
ATOM      4  C   LIG    1        2.634   1.593  -2.802  0.00  0.00    +0.015 A 
ATOM      5  C   LIG    1        2.540   0.621  -1.828  0.00  0.00    +0.008 A 
ATOM      6  C   LIG    1        1.334  -0.012  -1.589  0.00  0.00    -0.009 A 
ENDROOT
BRANCH   1   8
ATOM      7  C   LIG    1       -2.168   0.362  -2.211  0.00  0.00    +0.248 C 
ATOM      8  N   LIG    1       -1.010  -0.316  -2.084  0.00  0.00    -0.281 N 
ATOM      9  H   LIG    1       -1.021  -1.250  -1.823  0.00  0.00    +0.155 HD
ATOM     10  O   LIG    1       -2.159   1.512  -2.606  0.00  0.00    -0.270 OA
BRANCH   7  14
ATOM     11  C   LIG    1       -5.847  -1.518  -1.231  0.00  0.00    +0.030 A 
ATOM     12  C   LIG    1       -5.838  -0.201  -1.683  0.00  0.00    +0.024 A 
ATOM     13  C   LIG    1       -4.648   0.411  -2.002  0.00  0.00    +0.015 A 
ATOM     14  C   LIG    1       -3.446  -0.291  -1.871  0.00  0.00    +0.037 A 
ATOM     15  C   LIG    1       -3.458  -1.615  -1.422  0.00  0.00    +0.015 A 
ATOM     16  C   LIG    1       -4.652  -2.220  -1.099  0.00  0.00    +0.024 A 
BRANCH  11  22
ATOM     17  C   LIG    1      -11.390  -2.785  -1.753  0.00  0.00    -0.096 C 
ATOM     18  N   LIG    1       -9.934  -2.867  -1.623  0.00  0.00    +0.379 N 
ATOM     19  H   LIG    1       -9.509  -2.664  -2.535  0.00  0.00    -0.082 HD
ATOM     20  C   LIG    1       -9.465  -1.862  -0.652  0.00  0.00    -0.060 C 
ATOM     21  C   LIG    1       -8.135  -1.288  -1.180  0.00  0.00    +0.086 C 
ATOM     22  N   LIG    1       -7.052  -2.133  -0.911  0.00  0.00    -0.332 N 
ATOM     23  C   LIG    1       -7.153  -3.465  -1.547  0.00  0.00    +0.103 C 
ATOM     24  C   LIG    1       -8.073  -4.324  -0.717  0.00  0.00    +0.000 C 
ATOM     25  C   LIG    1       -9.529  -4.250  -1.205  0.00  0.00    -0.078 C 
ENDBRANCH  11  22
ENDBRANCH   7  14
ENDBRANCH   1   8
BRANCH   3  26
ATOM     26  C   LIG    1        1.605   2.983  -4.595  0.00  0.00    +0.337 C 
ATOM     27  O   LIG    1        0.624   3.284  -5.245  0.00  0.00    -0.245 OA
BRANCH  26  28
ATOM     28  O   LIG    1        2.781   3.598  -4.825  0.00  0.00    -0.477 OA
ATOM     29  H   LIG    1        3.537   3.366  -4.323  0.00  0.00    +0.295 HD
ENDBRANCH  26  28
ENDBRANCH   3  26
BRANCH   6  30
ATOM     30  C   LIG    1        1.241  -1.074  -0.524  0.00  0.00    +0.138 C 
BRANCH  30  31
ATOM     31  N   LIG    1        1.296  -2.398  -1.147  0.00  0.00    -0.340 N 
ATOM     32  H   LIG    1        1.380  -2.477  -2.111  0.00  0.00    +0.146 HD
BRANCH  31  33
ATOM     33  C   LIG    1        1.226  -3.547  -0.355  0.00  0.00    +0.028 A 
ATOM     34  C   LIG    1        1.105  -3.433   1.025  0.00  0.00    +0.023 A 
ATOM     35  C   LIG    1        1.036  -4.567   1.812  0.00  0.00    +0.003 A 
ATOM     36  C   LIG    1        1.087  -5.819   1.233  0.00  0.00    +0.016 A 
ATOM     37  C   LIG    1        1.208  -5.943  -0.151  0.00  0.00    +0.063 A 
ATOM     38  C   LIG    1        1.272  -4.800  -0.946  0.00  0.00    +0.038 A 
BRANCH  37  39
ATOM     39  C   LIG    1        1.262  -7.285  -0.774  0.00  0.00    +0.266 C 
ATOM     40  N   LIG    1        1.378  -7.333  -2.092  0.00  0.00    -0.288 N 
ATOM     41  H   LIG    1        1.425  -6.463  -2.635  0.00  0.00    +0.301 HD
ATOM     42  H   LIG    1        1.419  -8.235  -2.568  0.00  0.00    +0.301 HD
BRANCH  39  43
ATOM     43  N   LIG    1        1.193  -8.414   0.014  0.00  0.00    -0.250 N 
ATOM     44  H   LIG    1        1.228  -9.293  -0.395  0.00  0.00    +0.288 HD
ATOM     45  H   LIG    1        1.109  -8.329   0.976  0.00  0.00    +0.288 HD
ENDBRANCH  39  43
ENDBRANCH  37  39
ENDBRANCH  31  33
ENDBRANCH  30  31
ENDBRANCH   6  30
TORSDOF 10
