REMARK  Name = ZINC05962743
REMARK                            x       y       z     vdW  Elec       q    Type
REMARK                         _______ _______ _______ _____ _____    ______ ____
ROOT
ATOM      1  CA  LEU A  2       -1.081   1.045  -5.307  0.00  0.00    +0.159 C 
ENDROOT
BRANCH   1   3
ATOM      2  C   LEU A  1       -1.833  -0.484  -7.048  0.00  0.00    +0.234 C 
ATOM      3  N   LEU A  2       -0.814   0.040  -6.338  0.00  0.00    -0.302 N 
ATOM      4  H   LEU A  2        0.217  -0.288  -6.534  0.00  0.00    +0.150 HD
ATOM      5  O   LEU A  1       -2.959  -0.058  -6.898  0.00  0.00    -0.274 OA
BRANCH   2   6
ATOM      6  CA  LEU A  1       -1.574  -1.599  -8.028  0.00  0.00    +0.159 C 
BRANCH   6   7
ATOM      7  N   LEU A  1       -2.827  -2.306  -8.306  0.00  0.00    -0.304 N 
ATOM      8  H   LEU A  1       -2.915  -3.379  -8.081  0.00  0.00    +0.149 HD
ATOM      9  C   UNK A  0       -3.872  -1.641  -8.838  0.00  0.00    +0.211 C 
ATOM     10  C   UNK A  0       -5.161  -2.369  -9.123  0.00  0.00    +0.109 C 
ATOM     11  O   UNK A  0       -3.776  -0.458  -9.086  0.00  0.00    -0.276 OA
ENDBRANCH   6   7
BRANCH   6  12
ATOM     12  CB  LEU A  1       -1.019  -1.016  -9.329  0.00  0.00    +0.034 C 
BRANCH  12  14
ATOM     13  CD1 LEU A  1       -0.201  -1.573 -11.623  0.00  0.00    +0.007 C 
ATOM     14  CG  LEU A  1       -0.639  -2.155 -10.277  0.00  0.00    -0.015 C 
ATOM     15  CD2 LEU A  1        0.511  -2.961  -9.671  0.00  0.00    +0.007 C 
ENDBRANCH  12  14
ENDBRANCH   6  12
ENDBRANCH   2   6
ENDBRANCH   1   3
BRANCH   1  16
ATOM     16  C   LEU A  2       -0.017   0.967  -4.243  0.00  0.00    +0.234 C 
ATOM     17  N   ARG A  3       -0.257   1.461  -3.012  0.00  0.00    -0.304 N 
ATOM     18  H   ARG A  3       -1.199   1.990  -2.806  0.00  0.00    +0.149 HD
ATOM     19  O   LEU A  2        1.056   0.460  -4.494  0.00  0.00    -0.274 OA
BRANCH  17  20
ATOM     20  CA  ARG A  3        0.737   1.294  -1.948  0.00  0.00    +0.136 C 
BRANCH  20  21
ATOM     21  C   ARG A  3        1.757   2.400  -2.036  0.00  0.00    +0.245 C 
ATOM     22  O   ARG A  3        1.664   3.241  -2.897  0.00  0.00    -0.299 OA
ENDBRANCH  20  21
BRANCH  20  23
ATOM     23  CB  ARG A  3        0.041   1.348  -0.587  0.00  0.00    +0.033 C 
BRANCH  23  24
ATOM     24  CG  ARG A  3       -0.904   0.153  -0.449  0.00  0.00    +0.039 C 
BRANCH  24  25
ATOM     25  CD  ARG A  3       -1.600   0.208   0.912  0.00  0.00    +0.196 C 
BRANCH  25  26
ATOM     26  NE  ARG A  3       -2.505  -0.937   1.044  0.00  0.00    -0.279 N 
ATOM     27  HE  ARG A  3       -3.357  -1.047   0.356  0.00  0.00    +0.258 HD
ATOM     28  CZ  ARG A  3       -2.302  -1.825   1.976  0.00  0.00    +0.341 C 
BRANCH  28  29
ATOM     29  NH1 ARG A  3       -1.315  -1.625   2.912  0.00  0.00    -0.292 N 
ATOM     30 HH11 ARG A  3       -0.698  -0.715   2.875  0.00  0.00    +0.255 HD
ATOM     31 HH12 ARG A  3       -1.143  -2.374   3.699  0.00  0.00    +0.255 HD
ENDBRANCH  28  29
BRANCH  28  32
ATOM     32  NH2 ARG A  3       -3.074  -2.962   2.023  0.00  0.00    -0.292 N 
ATOM     33 HH21 ARG A  3       -3.863  -3.122   1.274  0.00  0.00    +0.255 HD
ATOM     34 HH22 ARG A  3       -2.902  -3.711   2.810  0.00  0.00    +0.255 HD
ENDBRANCH  28  32
ENDBRANCH  25  26
ENDBRANCH  24  25
ENDBRANCH  23  24
ENDBRANCH  20  23
ENDBRANCH  17  20
ENDBRANCH   1  16
BRANCH   1  35
ATOM     35  CB  LEU A  2       -1.069   2.439  -5.938  0.00  0.00    +0.034 C 
BRANCH  35  36
ATOM     36  CG  LEU A  2       -1.497   3.474  -4.896  0.00  0.00    -0.015 C 
ATOM     37  CD2 LEU A  2       -2.957   3.234  -4.508  0.00  0.00    +0.007 C 
ATOM     38  CD1 LEU A  2       -1.350   4.880  -5.484  0.00  0.00    +0.007 C 
ENDBRANCH  35  36
ENDBRANCH   1  35
TORSDOF 16
