REMARK  Name = ZINC06574943
REMARK                            x       y       z     vdW  Elec       q    Type
REMARK                         _______ _______ _______ _____ _____    ______ ____
ROOT
ATOM      1  N   LIG    1        5.745  -1.842   2.924  0.00  0.00    -0.175 NA
ATOM      2  C   LIG    1        6.820  -2.557   3.150  0.00  0.00    +0.152 C 
ATOM      3  C   LIG    1        7.769  -3.101   2.150  0.00  0.00    +0.028 A 
ATOM      4  C   LIG    1        7.828  -3.040   0.762  0.00  0.00    +0.012 A 
ATOM      5  C   LIG    1        8.862  -3.663   0.093  0.00  0.00    +0.001 A 
ATOM      6  C   LIG    1        9.836  -4.346   0.803  0.00  0.00    +0.002 A 
ATOM      7  C   LIG    1        9.785  -4.413   2.180  0.00  0.00    +0.024 A 
ATOM      8  C   LIG    1        8.751  -3.791   2.872  0.00  0.00    +0.043 A 
ATOM      9  N   LIG    1        8.469  -3.705   4.231  0.00  0.00    -0.280 N 
ATOM     10  H   LIG    1        9.011  -4.107   4.928  0.00  0.00    +0.155 HD
ATOM     11  C   LIG    1        7.354  -2.990   4.457  0.00  0.00    +0.269 C 
ATOM     12  O   LIG    1        6.869  -2.745   5.546  0.00  0.00    -0.268 OA
ENDROOT
BRANCH   1  14
ATOM     13  C   LIG    1        4.241  -0.849   1.368  0.00  0.00    +0.237 C 
ATOM     14  N   LIG    1        5.279  -1.672   1.613  0.00  0.00    -0.206 N 
ATOM     15  H   LIG    1        5.704  -2.147   0.882  0.00  0.00    +0.177 HD
ATOM     16  O   LIG    1        3.710  -0.255   2.282  0.00  0.00    -0.274 OA
BRANCH  13  17
ATOM     17  C   LIG    1        3.740  -0.666  -0.041  0.00  0.00    +0.132 C 
BRANCH  17  21
ATOM     18  C   LIG    1        0.457   2.066  -0.046  0.00  0.00    +0.000 A 
ATOM     19  C   LIG    1        1.748   2.537  -0.196  0.00  0.00    +0.000 A 
ATOM     20  C   LIG    1        2.810   1.653  -0.194  0.00  0.00    +0.004 A 
ATOM     21  C   LIG    1        2.582   0.298  -0.042  0.00  0.00    -0.039 A 
ATOM     22  C   LIG    1        1.291  -0.173   0.109  0.00  0.00    +0.004 A 
ATOM     23  C   LIG    1        0.228   0.711   0.106  0.00  0.00    +0.000 A 
ENDBRANCH  17  21
ENDBRANCH  13  17
ENDBRANCH   1  14
TORSDOF 3
