REMARK  Name = ZINC06848162
REMARK                            x       y       z     vdW  Elec       q    Type
REMARK                         _______ _______ _______ _____ _____    ______ ____
ROOT
ATOM      1  C   LIG    1        4.898  -2.639  -0.050  0.00  0.00    +0.263 C 
ATOM      2  N   LIG    1        5.136  -3.921  -0.391  0.00  0.00    -0.262 N 
ATOM      3  H   LIG    1        4.464  -4.428  -0.873  0.00  0.00    +0.157 HD
ATOM      4  O   LIG    1        5.739  -2.006   0.552  0.00  0.00    -0.271 OA
ENDROOT
BRANCH   1  12
ATOM      5  C   LIG    1       -0.017   1.378   0.010  0.00  0.00    +0.004 A 
ATOM      6  C   LIG    1        1.170   2.088   0.002  0.00  0.00    +0.004 A 
ATOM      7  C   LIG    1        2.378   1.418  -0.012  0.00  0.00    +0.049 A 
ATOM      8  C   LIG    1        2.404   0.031  -0.019  0.00  0.00    +0.163 A 
ATOM      9  C   LIG    1        1.212  -0.683  -0.014  0.00  0.00    +0.162 A 
ATOM     10  O   LIG    1        1.214  -2.043  -0.029  0.00  0.00    -0.484 OA
ATOM     11  C   LIG    1        2.441  -2.689   0.331  0.00  0.00    +0.283 C 
ATOM     12  C   LIG    1        3.587  -1.993  -0.416  0.00  0.00    +0.296 C 
ATOM     13  O   LIG    1        3.602  -0.615  -0.029  0.00  0.00    -0.473 OA
ATOM     14  C   LIG    1        0.002  -0.004   0.002  0.00  0.00    +0.049 A 
ENDBRANCH   1  12
BRANCH   2  15
ATOM     15  C   LIG    1        6.345  -4.517  -0.054  0.00  0.00    +0.165 A 
ATOM     16  N   LIG    1        6.769  -5.743  -0.298  0.00  0.00    -0.225 NA
ATOM     17  C   LIG    1        7.965  -6.150   0.101  0.00  0.00    +0.080 A 
ATOM     18  C   LIG    1        8.777  -5.282   0.779  0.00  0.00    +0.076 A 
ATOM     19  S   LIG    1        7.742  -3.824   0.820  0.00  0.00    -0.060 S 
BRANCH  17  20
ATOM     20  C   LIG    1        8.419  -7.531  -0.185  0.00  0.00    +0.004 A 
ATOM     21  C   LIG    1        9.677  -7.976   0.236  0.00  0.00    +0.030 A 
ATOM     22  C   LIG    1       10.059  -9.269  -0.051  0.00  0.00    +0.111 A 
ATOM     23  N   LIG    1        9.257 -10.082  -0.712  0.00  0.00    -0.263 NA
ATOM     24  C   LIG    1        8.063  -9.703  -1.126  0.00  0.00    +0.111 A 
ATOM     25  C   LIG    1        7.599  -8.428  -0.877  0.00  0.00    +0.030 A 
ENDBRANCH  17  20
ENDBRANCH   2  15
TORSDOF 3
