REMARK  Name = ZINC08536496
REMARK                            x       y       z     vdW  Elec       q    Type
REMARK                         _______ _______ _______ _____ _____    ______ ____
ROOT
ATOM      1  C   LIG    1       -1.271  -0.767  -0.099  0.00  0.00    +0.139 A 
ATOM      2  N   LIG    1       -1.385  -2.127  -0.110  0.00  0.00    -0.337 N 
ATOM      3  C   LIG    1       -2.719  -2.424   0.061  0.00  0.00    +0.074 A 
ATOM      4  C   LIG    1       -3.378  -1.210   0.171  0.00  0.00    +0.097 A 
ATOM      5  H   LIG    1       -0.662  -2.764  -0.217  0.00  0.00    +0.167 HD
ATOM      6  N   LIG    1       -2.460  -0.236   0.073  0.00  0.00    -0.227 NA
ENDROOT
BRANCH   4   7
ATOM      7  C   LIG    1       -4.835  -1.022   0.367  0.00  0.00    +0.003 A 
ATOM      8  C   LIG    1       -5.528  -1.823   1.274  0.00  0.00    +0.013 A 
ATOM      9  C   LIG    1       -6.884  -1.643   1.452  0.00  0.00    +0.039 A 
ATOM     10  C   LIG    1       -7.557  -0.669   0.733  0.00  0.00    +0.123 A 
ATOM     11  F   LIG    1       -8.885  -0.498   0.911  0.00  0.00    -0.205 F 
ATOM     12  C   LIG    1       -6.873   0.129  -0.170  0.00  0.00    +0.039 A 
ATOM     13  C   LIG    1       -5.516  -0.039  -0.351  0.00  0.00    +0.013 A 
ENDBRANCH   4   7
BRANCH   1  19
ATOM     14  C   LIG    1       -0.019   1.383  -0.218  0.00  0.00    +0.014 A 
ATOM     15  C   LIG    1        1.162   2.082  -0.360  0.00  0.00    +0.033 A 
ATOM     16  C   LIG    1        2.355   1.402  -0.536  0.00  0.00    +0.122 A 
ATOM     17  C   LIG    1        2.371   0.019  -0.570  0.00  0.00    +0.033 A 
ATOM     18  C   LIG    1        1.197  -0.692  -0.428  0.00  0.00    +0.014 A 
ATOM     19  C   LIG    1       -0.009  -0.012  -0.251  0.00  0.00    +0.017 A 
BRANCH  16  20
ATOM     20  N   LIG    1        3.619   2.158  -0.689  0.00  0.00    +0.006 N 
ATOM     21  O   LIG    1        3.607   3.367  -0.660  0.00  0.00    -0.130 OA
BRANCH  20  22
ATOM     22  O   LIG    1        4.662   1.567  -0.842  0.00  0.00    -0.396 OA
ATOM     23  H   LIG    1        4.671   0.631  -0.865  0.00  0.00    +0.329 HD
ENDBRANCH  20  22
ENDBRANCH  16  20
ENDBRANCH   1  19
BRANCH   3  24
ATOM     24  C   LIG    1       -3.325  -3.767   0.116  0.00  0.00    +0.003 A 
ATOM     25  C   LIG    1       -4.468  -4.073  -0.636  0.00  0.00    +0.030 A 
ATOM     26  C   LIG    1       -5.001  -5.341  -0.554  0.00  0.00    +0.111 A 
ATOM     27  N   LIG    1       -4.450  -6.260   0.217  0.00  0.00    -0.263 NA
ATOM     28  C   LIG    1       -3.373  -6.015   0.941  0.00  0.00    +0.111 A 
ATOM     29  C   LIG    1       -2.771  -4.776   0.916  0.00  0.00    +0.030 A 
ENDBRANCH   3  24
TORSDOF 5
