REMARK  Name = ZINC08035014
REMARK                            x       y       z     vdW  Elec       q    Type
REMARK                         _______ _______ _______ _____ _____    ______ ____
ROOT
ATOM      1  C   LIG    1       -1.116   3.837  -0.916  0.00  0.00    +0.096 C 
ENDROOT
BRANCH   1   2
ATOM      2  C   LIG    1       -1.075   2.356  -1.194  0.00  0.00    +0.213 C 
ATOM      3  N   LIG    1        0.110   1.717  -1.267  0.00  0.00    -0.315 N 
ATOM      4  H   LIG    1        0.935   2.211  -1.144  0.00  0.00    +0.149 HD
ATOM      5  O   LIG    1       -2.107   1.740  -1.354  0.00  0.00    -0.276 OA
BRANCH   3   6
ATOM      6  C   LIG    1        0.150   0.278  -1.538  0.00  0.00    +0.109 C 
BRANCH   6   7
ATOM      7  C   LIG    1        1.605  -0.194  -1.575  0.00  0.00    +0.054 C 
BRANCH   7   8
ATOM      8  C   LIG    1        1.646  -1.674  -1.854  0.00  0.00    -0.042 A 
ATOM      9  C   LIG    1        1.628  -2.574  -0.805  0.00  0.00    +0.007 A 
ATOM     10  C   LIG    1        1.660  -3.933  -1.056  0.00  0.00    +0.049 A 
ATOM     11  C   LIG    1        1.722  -4.396  -2.361  0.00  0.00    +0.158 A 
ATOM     12  C   LIG    1        1.746  -3.489  -3.416  0.00  0.00    +0.158 A 
ATOM     13  C   LIG    1        1.708  -2.129  -3.158  0.00  0.00    +0.052 A 
BRANCH  12  14
ATOM     14  O   LIG    1        1.806  -3.938  -4.699  0.00  0.00    -0.503 OA
ATOM     15  H   LIG    1        2.706  -4.050  -5.034  0.00  0.00    +0.292 HD
ENDBRANCH  12  14
BRANCH  11  16
ATOM     16  O   LIG    1        1.759  -5.732  -2.609  0.00  0.00    -0.503 OA
ATOM     17  H   LIG    1        2.652  -6.101  -2.646  0.00  0.00    +0.292 HD
ENDBRANCH  11  16
ENDBRANCH   7   8
ENDBRANCH   6   7
ENDBRANCH   3   6
ENDBRANCH   1   2
BRANCH   1  18
ATOM     18  C   LIG    1       -2.571   4.310  -0.886  0.00  0.00    +0.009 C 
BRANCH  18  19
ATOM     19  C   LIG    1       -2.613   5.812  -0.603  0.00  0.00    +0.000 C 
BRANCH  19  20
ATOM     20  C   LIG    1       -4.068   6.285  -0.573  0.00  0.00    +0.000 C 
BRANCH  20  21
ATOM     21  C   LIG    1       -4.110   7.788  -0.289  0.00  0.00    +0.000 C 
BRANCH  21  22
ATOM     22  C   LIG    1       -5.565   8.261  -0.260  0.00  0.00    +0.004 C 
BRANCH  22  23
ATOM     23  C   LIG    1       -5.607   9.764   0.024  0.00  0.00    +0.027 C 
BRANCH  23  25
ATOM     24  C   LIG    1       -7.486  10.911   1.079  0.00  0.00    -0.031 C 
ATOM     25  C   LIG    1       -7.040  10.230   0.053  0.00  0.00    -0.031 C 
BRANCH  24  26
ATOM     26  C   LIG    1       -6.531  11.375   2.149  0.00  0.00    +0.027 C 
BRANCH  26  27
ATOM     27  C   LIG    1       -6.686  12.884   2.350  0.00  0.00    +0.004 C 
BRANCH  27  28
ATOM     28  C   LIG    1       -5.716  13.355   3.436  0.00  0.00    +0.000 C 
BRANCH  28  29
ATOM     29  C   LIG    1       -5.871  14.864   3.638  0.00  0.00    +0.000 C 
BRANCH  29  30
ATOM     30  C   LIG    1       -4.901  15.335   4.723  0.00  0.00    -0.000 C 
BRANCH  30  31
ATOM     31  C   LIG    1       -5.056  16.844   4.925  0.00  0.00    -0.000 C 
BRANCH  31  33
ATOM     32  C   LIG    1       -4.241  18.824   6.213  0.00  0.00    +0.004 C 
ATOM     33  C   LIG    1       -4.086  17.316   6.011  0.00  0.00    -0.003 C 
ENDBRANCH  31  33
ENDBRANCH  30  31
ENDBRANCH  29  30
ENDBRANCH  28  29
ENDBRANCH  27  28
ENDBRANCH  26  27
ENDBRANCH  24  26
ENDBRANCH  23  25
ENDBRANCH  22  23
ENDBRANCH  21  22
ENDBRANCH  20  21
ENDBRANCH  19  20
ENDBRANCH  18  19
ENDBRANCH   1  18
TORSDOF 20
