REMARK  Name = ZINC05929443
REMARK                            x       y       z     vdW  Elec       q    Type
REMARK                         _______ _______ _______ _____ _____    ______ ____
ROOT
ATOM      1  N   LIG    1        1.651  -4.999  -0.034  0.00  0.00    -0.195 N 
ATOM      2  C   LIG    1        2.354  -5.196  -1.300  0.00  0.00    +0.211 C 
ATOM      3  C   LIG    1        3.176  -6.457  -1.258  0.00  0.00    +0.183 C 
ATOM      4  C   LIG    1        2.568  -7.658  -0.660  0.00  0.00    +0.027 A 
ATOM      5  C   LIG    1        2.257  -8.770  -1.440  0.00  0.00    +0.012 A 
ATOM      6  C   LIG    1        1.666  -9.872  -0.858  0.00  0.00    +0.001 A 
ATOM      7  C   LIG    1        1.377  -9.879   0.498  0.00  0.00    +0.001 A 
ATOM      8  C   LIG    1        1.686  -8.791   1.290  0.00  0.00    +0.009 A 
ATOM      9  C   LIG    1        2.293  -7.673   0.729  0.00  0.00    -0.006 A 
ATOM     10  C   LIG    1        2.673  -6.516   1.565  0.00  0.00    +0.005 A 
ATOM     11  C   LIG    1        3.369  -6.708   2.756  0.00  0.00    +0.010 A 
ATOM     12  C   LIG    1        3.715  -5.610   3.539  0.00  0.00    +0.001 A 
ATOM     13  C   LIG    1        3.370  -4.329   3.143  0.00  0.00    +0.002 A 
ATOM     14  C   LIG    1        2.683  -4.126   1.961  0.00  0.00    +0.025 A 
ATOM     15  O   LIG    1        4.304  -6.483  -1.703  0.00  0.00    -0.290 OA
ATOM     16  C   LIG    1        2.334  -5.206   1.165  0.00  0.00    +0.059 A 
ENDROOT
BRANCH   1  17
ATOM     17  S   LIG    1        0.063  -4.530  -0.023  0.00  0.00    +0.075 S 
ATOM     18  O   LIG    1       -0.490  -4.937  -1.267  0.00  0.00    -0.150 OA
ATOM     19  O   LIG    1       -0.476  -4.950   1.223  0.00  0.00    -0.150 OA
BRANCH  17  24
ATOM     20  C   LIG    1       -0.018   1.503   0.010  0.00  0.00    +0.044 C 
ATOM     21  C   LIG    1        0.002  -0.004   0.002  0.00  0.00    -0.050 A 
ATOM     22  C   LIG    1        0.006  -0.689  -1.199  0.00  0.00    +0.005 A 
ATOM     23  C   LIG    1        0.025  -2.071  -1.206  0.00  0.00    +0.029 A 
ATOM     24  C   LIG    1        0.040  -2.768  -0.013  0.00  0.00    +0.109 A 
ATOM     25  C   LIG    1        0.037  -2.084   1.188  0.00  0.00    +0.029 A 
ATOM     26  C   LIG    1        0.023  -0.702   1.195  0.00  0.00    +0.005 A 
ENDBRANCH  17  24
ENDBRANCH   1  17
TORSDOF 2
