REMARK  Name = ZINC06019879
REMARK                            x       y       z     vdW  Elec       q    Type
REMARK                         _______ _______ _______ _____ _____    ______ ____
ROOT
ATOM      1  C   LIG    1        5.814   3.350  -0.035  0.00  0.00    +0.033 C 
ATOM      2  C   LIG    1        6.470   2.782  -1.300  0.00  0.00    -0.065 C 
ATOM      3  N   LIG    1        6.767   1.345  -1.003  0.00  0.00    +0.385 N 
ATOM      4  H   LIG    1        5.936   0.922  -0.574  0.00  0.00    -0.081 HD
ATOM      5  C   LIG    1        7.881   1.272  -0.107  0.00  0.00    -0.037 C 
ATOM      6  C   LIG    1        7.437   1.839   1.202  0.00  0.00    -0.057 A 
ATOM      7  C   LIG    1        7.990   1.384   2.384  0.00  0.00    +0.002 A 
ATOM      8  C   LIG    1        7.589   1.920   3.593  0.00  0.00    +0.000 A 
ATOM      9  C   LIG    1        6.631   2.917   3.615  0.00  0.00    +0.000 A 
ATOM     10  C   LIG    1        6.075   3.367   2.436  0.00  0.00    +0.004 A 
ATOM     11  C   LIG    1        8.210  -0.222  -0.100  0.00  0.00    -0.013 C 
ATOM     12  C   LIG    1        7.780  -0.706  -1.510  0.00  0.00    -0.020 C 
ATOM     13  C   LIG    1        7.162   0.546  -2.191  0.00  0.00    -0.078 C 
ATOM     14  C   LIG    1        6.468   2.829   1.219  0.00  0.00    -0.040 A 
ENDROOT
BRANCH   1  18
ATOM     15  C   LIG    1        1.681   2.259  -0.002  0.00  0.00    +0.008 A 
ATOM     16  C   LIG    1        2.661   1.274  -0.011  0.00  0.00    +0.015 A 
ATOM     17  C   LIG    1        3.995   1.630  -0.027  0.00  0.00    +0.005 A 
ATOM     18  C   LIG    1        4.357   2.965  -0.023  0.00  0.00    -0.042 A 
ATOM     19  C   LIG    1        3.384   3.948  -0.009  0.00  0.00    +0.005 A 
ATOM     20  C   LIG    1        2.048   3.600   0.002  0.00  0.00    +0.015 A 
BRANCH  15  22
ATOM     21  C   LIG    1        0.002  -0.004   0.002  0.00  0.00    +0.090 C 
ATOM     22  S   LIG    1       -0.022   1.810   0.012  0.00  0.00    -0.129 S 
ENDBRANCH  15  22
ENDBRANCH   1  18
TORSDOF 2
