REMARK  Name = ZINC07306536
REMARK                            x       y       z     vdW  Elec       q    Type
REMARK                         _______ _______ _______ _____ _____    ______ ____
ROOT
ATOM      1  C   LIG    1       -1.453   7.277   0.146  0.00  0.00    +0.034 A 
ATOM      2  C   LIG    1       -0.266   7.999   0.137  0.00  0.00    +0.025 A 
ATOM      3  C   LIG    1       -0.297   9.376   0.231  0.00  0.00    +0.022 A 
ATOM      4  C   LIG    1       -1.508  10.036   0.346  0.00  0.00    +0.053 A 
ATOM      5 CL   LIG    1       -1.543  11.767   0.471  0.00  0.00    -0.083 Cl
ATOM      6  C   LIG    1       -2.691   9.319   0.360  0.00  0.00    +0.075 A 
ATOM      7  C   LIG    1       -2.666   7.941   0.261  0.00  0.00    +0.037 A 
ENDROOT
BRANCH   1   9
ATOM      8  C   LIG    1       -0.471   5.278  -0.692  0.00  0.00    +0.267 C 
ATOM      9  N   LIG    1       -1.424   5.882   0.046  0.00  0.00    -0.280 N 
ATOM     10  H   LIG    1       -2.091   5.349   0.507  0.00  0.00    +0.155 HD
ATOM     11  O   LIG    1        0.304   5.946  -1.346  0.00  0.00    -0.268 OA
BRANCH   8  16
ATOM     12  C   LIG    1        0.701   1.799  -1.470  0.00  0.00    +0.004 A 
ATOM     13  C   LIG    1       -0.207   1.081  -0.707  0.00  0.00    +0.020 A 
ATOM     14  C   LIG    1       -1.166   1.762   0.025  0.00  0.00    +0.111 A 
ATOM     15  N   LIG    1       -1.220   3.076   0.013  0.00  0.00    -0.250 NA
ATOM     16  C   LIG    1       -0.369   3.800  -0.705  0.00  0.00    +0.126 A 
ATOM     17  C   LIG    1        0.618   3.183  -1.469  0.00  0.00    +0.033 A 
ENDBRANCH   8  16
ENDBRANCH   1   9
BRANCH   6  18
ATOM     18  C   LIG    1       -4.008  10.041   0.484  0.00  0.00    +0.419 C 
ATOM     19  F   LIG    1       -4.160  10.922  -0.592  0.00  0.00    -0.166 F 
ATOM     20  F   LIG    1       -4.035  10.760   1.683  0.00  0.00    -0.166 F 
ATOM     21  F   LIG    1       -5.053   9.111   0.475  0.00  0.00    -0.166 F 
ENDBRANCH   6  18
TORSDOF 3
