REMARK  Name = ZINC06718723
REMARK                            x       y       z     vdW  Elec       q    Type
REMARK                         _______ _______ _______ _____ _____    ______ ____
ROOT
ATOM      1  C   LIG    1       -3.422   3.562  -7.922  0.00  0.00    +0.152 A 
ATOM      2  C   LIG    1       -4.141   3.056  -9.020  0.00  0.00    +0.034 A 
ATOM      3  C   LIG    1       -4.590   4.106  -9.740  0.00  0.00    +0.060 A 
ATOM      4  C   LIG    1       -5.367   3.601 -10.929  0.00  0.00    +0.163 C 
ATOM      5  N   LIG    1       -5.354   2.135 -10.874  0.00  0.00    -0.289 N 
ATOM      6  C   LIG    1       -5.934   1.288 -11.748  0.00  0.00    +0.250 C 
ATOM      7  O   LIG    1       -5.771   0.091 -11.632  0.00  0.00    -0.272 OA
ATOM      8  N   LIG    1       -4.175   5.237  -9.127  0.00  0.00    -0.278 N 
ATOM      9  H   LIG    1       -4.354   6.172  -9.434  0.00  0.00    +0.189 HD
ATOM     10  C   LIG    1       -4.586   1.774  -9.677  0.00  0.00    +0.148 C 
ATOM     11  N   LIG    1       -3.450   4.871  -7.986  0.00  0.00    -0.158 NA
ENDROOT
BRANCH   1  13
ATOM     12  C   LIG    1       -2.134   3.412  -5.926  0.00  0.00    +0.249 C 
ATOM     13  N   LIG    1       -2.793   2.799  -6.929  0.00  0.00    -0.265 N 
ATOM     14  H   LIG    1       -2.831   1.831  -6.964  0.00  0.00    +0.157 HD
ATOM     15  O   LIG    1       -2.085   4.626  -5.882  0.00  0.00    -0.270 OA
BRANCH  12  19
ATOM     16  C   LIG    1       -0.226   1.102  -2.917  0.00  0.00    +0.030 A 
ATOM     17  C   LIG    1       -0.902   0.467  -3.955  0.00  0.00    +0.024 A 
ATOM     18  C   LIG    1       -1.525   1.213  -4.930  0.00  0.00    +0.015 A 
ATOM     19  C   LIG    1       -1.471   2.609  -4.881  0.00  0.00    +0.037 A 
ATOM     20  C   LIG    1       -0.786   3.243  -3.839  0.00  0.00    +0.015 A 
ATOM     21  C   LIG    1       -0.170   2.492  -2.866  0.00  0.00    +0.024 A 
BRANCH  16  27
ATOM     22  C   LIG    1        1.156  -2.318   1.260  0.00  0.00    -0.096 C 
ATOM     23  N   LIG    1        0.468  -1.524   0.219  0.00  0.00    +0.380 N 
ATOM     24  H   LIG    1       -0.538  -1.726   0.256  0.00  0.00    -0.082 HD
ATOM     25  C   LIG    1        0.678  -0.081   0.463  0.00  0.00    -0.060 C 
ATOM     26  C   LIG    1       -0.089   0.715  -0.595  0.00  0.00    +0.086 C 
ATOM     27  N   LIG    1        0.398   0.345  -1.931  0.00  0.00    -0.333 N 
ATOM     28  C   LIG    1        0.216  -1.093  -2.176  0.00  0.00    +0.086 C 
ATOM     29  C   LIG    1        0.982  -1.889  -1.118  0.00  0.00    -0.060 C 
ENDBRANCH  16  27
ENDBRANCH  12  19
ENDBRANCH   1  13
BRANCH   6  30
ATOM     30  C   LIG    1       -6.783   1.828 -12.870  0.00  0.00    +0.233 C 
BRANCH  30  31
ATOM     31  C   LIG    1       -5.902   2.512 -13.883  0.00  0.00    -0.010 A 
ATOM     32  C   LIG    1       -5.141   1.760 -14.758  0.00  0.00    +0.006 A 
ATOM     33  C   LIG    1       -4.337   2.388 -15.690  0.00  0.00    +0.000 A 
ATOM     34  C   LIG    1       -4.285   3.768 -15.740  0.00  0.00    +0.000 A 
ATOM     35  C   LIG    1       -5.043   4.521 -14.862  0.00  0.00    +0.000 A 
ATOM     36  C   LIG    1       -5.851   3.893 -13.933  0.00  0.00    +0.006 A 
ENDBRANCH  30  31
BRANCH  30  37
ATOM     37  O   LIG    1       -7.484   0.751 -13.497  0.00  0.00    -0.366 OA
ATOM     38  C   LIG    1       -8.745   1.125 -14.054  0.00  0.00    +0.195 C 
ENDBRANCH  30  37
ENDBRANCH   6  30
TORSDOF 6
