REMARK  Name = ZINC08376247
REMARK                            x       y       z     vdW  Elec       q    Type
REMARK                         _______ _______ _______ _____ _____    ______ ____
ROOT
ATOM      1  S   LIG    1        3.938  -0.833  -0.041  0.00  0.00    +0.091 S 
ATOM      2  O   LIG    1        4.896   0.059  -0.596  0.00  0.00    -0.150 OA
ATOM      3  O   LIG    1        3.679  -2.115  -0.597  0.00  0.00    -0.150 OA
ENDROOT
BRANCH   1  10
ATOM      4  C   LIG    1       -0.017   1.381   0.010  0.00  0.00    +0.199 A 
ATOM      5  F   LIG    1       -1.195   2.041   0.030  0.00  0.00    -0.199 F 
ATOM      6  C   LIG    1        1.174   2.090   0.002  0.00  0.00    +0.198 A 
ATOM      7  F   LIG    1        1.157   3.441   0.009  0.00  0.00    -0.199 F 
ATOM      8  C   LIG    1        2.383   1.412  -0.013  0.00  0.00    +0.191 A 
ATOM      9  F   LIG    1        3.544   2.102  -0.021  0.00  0.00    -0.200 F 
ATOM     10  C   LIG    1        2.401   0.028  -0.021  0.00  0.00    +0.184 A 
ATOM     11  C   LIG    1        1.212  -0.680  -0.014  0.00  0.00    +0.191 A 
ATOM     12  F   LIG    1        1.230  -2.031  -0.023  0.00  0.00    -0.200 F 
ATOM     13  C   LIG    1        0.002  -0.004   0.002  0.00  0.00    +0.198 A 
ATOM     14  F   LIG    1       -1.159  -0.696   0.010  0.00  0.00    -0.199 F 
ENDBRANCH   1  10
BRANCH   1  15
ATOM     15  N   LIG    1        4.381  -1.081   1.535  0.00  0.00    -0.050 NA
ATOM     16  H   LIG    1        3.629  -1.614   1.972  0.00  0.00    +0.191 HD
BRANCH  15  17
ATOM     17  N   LIG    1        5.576  -1.750   1.830  0.00  0.00    -0.182 N 
ATOM     18  H   LIG    1        6.144  -2.068   1.111  0.00  0.00    +0.285 HD
BRANCH  17  19
ATOM     19  C   LIG    1        5.944  -1.956   3.139  0.00  0.00    +0.394 C 
ATOM     20  N   LIG    1        5.180  -1.529   4.105  0.00  0.00    -0.128 NA
ATOM     21  H   LIG    1        4.353  -1.065   3.901  0.00  0.00    +0.306 HD
BRANCH  19  22
ATOM     22  N   LIG    1        7.116  -2.612   3.429  0.00  0.00    -0.288 N 
ATOM     23  H   LIG    1        7.375  -2.758   4.352  0.00  0.00    +0.255 HD
ATOM     24  H   LIG    1        7.684  -2.930   2.709  0.00  0.00    +0.255 HD
ENDBRANCH  19  22
ENDBRANCH  17  19
ENDBRANCH  15  17
ENDBRANCH   1  15
TORSDOF 5
