REMARK  Name = ZINC06347223
REMARK                            x       y       z     vdW  Elec       q    Type
REMARK                         _______ _______ _______ _____ _____    ______ ____
ROOT
ATOM      1  N   LIG    1       -0.915  -5.051  -0.027  0.00  0.00    -0.261 N 
ATOM      2  H   LIG    1       -1.825  -4.715  -0.021  0.00  0.00    +0.157 HD
ATOM      3  C   LIG    1       -0.687  -6.380  -0.035  0.00  0.00    +0.250 C 
ATOM      4  O   LIG    1        0.453  -6.800  -0.043  0.00  0.00    -0.270 OA
ENDROOT
BRANCH   3   5
ATOM      5  C   LIG    1       -1.823  -7.324  -0.035  0.00  0.00    +0.037 A 
ATOM      6  C   LIG    1       -3.134  -6.844  -0.032  0.00  0.00    +0.015 A 
ATOM      7  C   LIG    1       -4.191  -7.732  -0.031  0.00  0.00    +0.033 A 
ATOM      8  C   LIG    1       -3.953  -9.095  -0.034  0.00  0.00    +0.122 A 
ATOM      9  C   LIG    1       -2.656  -9.577  -0.037  0.00  0.00    +0.033 A 
ATOM     10  C   LIG    1       -1.591  -8.701  -0.044  0.00  0.00    +0.015 A 
BRANCH   8  11
ATOM     11  N   LIG    1       -5.091 -10.041  -0.033  0.00  0.00    +0.006 N 
ATOM     12  O   LIG    1       -6.225  -9.622  -0.030  0.00  0.00    -0.130 OA
BRANCH  11  13
ATOM     13  O   LIG    1       -4.887 -11.232  -0.035  0.00  0.00    -0.396 OA
ATOM     14  H   LIG    1       -4.008 -11.557  -0.037  0.00  0.00    +0.329 HD
ENDBRANCH  11  13
ENDBRANCH   8  11
ENDBRANCH   3   5
BRANCH   1  18
ATOM     15  C   LIG    1        1.268  -2.146  -0.022  0.00  0.00    +0.098 A 
ATOM     16  C   LIG    1        2.466  -2.807  -0.031  0.00  0.00    +0.078 A 
ATOM     17  S   LIG    1        1.907  -4.505  -0.038  0.00  0.00    -0.060 S 
ATOM     18  C   LIG    1        0.153  -4.164  -0.027  0.00  0.00    +0.165 A 
ATOM     19  N   LIG    1        0.141  -2.844  -0.014  0.00  0.00    -0.223 NA
BRANCH  15  24
ATOM     20  C   LIG    1       -0.017   1.379   0.010  0.00  0.00    +0.004 A 
ATOM     21  C   LIG    1        1.194   2.059   0.002  0.00  0.00    +0.020 A 
ATOM     22  C   LIG    1        2.375   1.341  -0.013  0.00  0.00    +0.111 A 
ATOM     23  N   LIG    1        2.365   0.023  -0.020  0.00  0.00    -0.253 NA
ATOM     24  C   LIG    1        1.230  -0.665  -0.013  0.00  0.00    +0.090 A 
ATOM     25  C   LIG    1        0.002  -0.004   0.002  0.00  0.00    +0.030 A 
ENDBRANCH  15  24
ENDBRANCH   1  18
TORSDOF 5
