REMARK  Name = ZINC08536348
REMARK                            x       y       z     vdW  Elec       q    Type
REMARK                         _______ _______ _______ _____ _____    ______ ____
ROOT
ATOM      1  C   LIG    1       -3.979  -1.794  -2.434  0.00  0.00    +0.104 A 
ATOM      2  C   LIG    1       -5.197  -2.513  -2.538  0.00  0.00    +0.030 A 
ATOM      3  C   LIG    1       -5.334  -2.904  -3.836  0.00  0.00    +0.041 A 
ATOM      4  C   LIG    1       -6.481  -3.695  -4.409  0.00  0.00    +0.065 C 
ATOM      5  N   LIG    1       -4.258  -2.456  -4.517  0.00  0.00    -0.281 N 
ATOM      6  H   LIG    1       -4.091  -2.589  -5.463  0.00  0.00    +0.189 HD
ATOM      7  N   LIG    1       -3.428  -1.763  -3.628  0.00  0.00    -0.173 NA
ENDROOT
BRANCH   2   8
ATOM      8  C   LIG    1       -6.150  -2.789  -1.434  0.00  0.00    -0.010 A 
ATOM      9  C   LIG    1       -5.776  -3.621  -0.381  0.00  0.00    +0.012 A 
ATOM     10  C   LIG    1       -6.663  -3.878   0.644  0.00  0.00    +0.050 A 
ATOM     11  C   LIG    1       -7.929  -3.309   0.631  0.00  0.00    +0.162 A 
ATOM     12  C   LIG    1       -8.307  -2.476  -0.416  0.00  0.00    +0.163 A 
ATOM     13  O   LIG    1       -9.542  -1.903  -0.440  0.00  0.00    -0.485 OA
ATOM     14  C   LIG    1      -10.535  -2.479   0.415  0.00  0.00    +0.270 C 
ATOM     15  C   LIG    1       -9.909  -2.697   1.799  0.00  0.00    +0.270 C 
ATOM     16  O   LIG    1       -8.790  -3.579   1.651  0.00  0.00    -0.485 OA
ATOM     17  C   LIG    1       -7.418  -2.212  -1.445  0.00  0.00    +0.058 A 
ENDBRANCH   2   8
BRANCH   1  20
ATOM     18  C   LIG    1       -3.732   0.154   0.770  0.00  0.00    -0.005 A 
ATOM     19  C   LIG    1       -4.247  -0.414  -0.377  0.00  0.00    +0.021 A 
ATOM     20  C   LIG    1       -3.429  -1.183  -1.202  0.00  0.00    +0.045 A 
ATOM     21  C   LIG    1       -2.085  -1.375  -0.863  0.00  0.00    +0.130 A 
ATOM     22  C   LIG    1       -1.577  -0.802   0.290  0.00  0.00    +0.091 A 
ATOM     23  C   LIG    1       -2.398  -0.033   1.103  0.00  0.00    +0.124 A 
BRANCH  18  25
ATOM     24  C   LIG    1       -5.074   0.144   2.855  0.00  0.00    +0.009 C 
ATOM     25  C   LIG    1       -4.620   0.985   1.661  0.00  0.00    +0.035 C 
ENDBRANCH  18  25
BRANCH  21  26
ATOM     26  O   LIG    1       -1.282  -2.124  -1.662  0.00  0.00    -0.506 OA
ATOM     27  H   LIG    1       -0.771  -1.607  -2.301  0.00  0.00    +0.292 HD
ENDBRANCH  21  26
BRANCH  23  28
ATOM     28  O   LIG    1       -1.895   0.533   2.231  0.00  0.00    -0.506 OA
ATOM     29  H   LIG    1       -1.966  -0.026   3.017  0.00  0.00    +0.292 HD
ENDBRANCH  23  28
ENDBRANCH   1  20
TORSDOF 5
