REMARK  Name = ZINC07996680
REMARK                            x       y       z     vdW  Elec       q    Type
REMARK                         _______ _______ _______ _____ _____    ______ ____
ROOT
ATOM      1  C   LIG    1       -0.010   1.522   0.187  0.00  0.00    +0.007 C 
ATOM      2  C   LIG    1        0.006  -0.004   0.090  0.00  0.00    -0.017 C 
ATOM      3  C   LIG    1       -1.426  -0.538   0.112  0.00  0.00    -0.060 C 
ATOM      4  C   LIG    1       -2.176   0.036   1.300  0.00  0.00    +0.020 C 
ATOM      5  C   LIG    1       -1.349   0.012   2.558  0.00  0.00    -0.045 A 
ATOM      6  C   LIG    1       -1.997   0.274   3.760  0.00  0.00    +0.007 A 
ATOM      7  C   LIG    1       -1.297   0.284   4.947  0.00  0.00    +0.045 A 
ATOM      8  C   LIG    1        0.068   0.032   4.946  0.00  0.00    +0.117 A 
ATOM      9  C   LIG    1        0.712  -0.235   3.750  0.00  0.00    +0.049 A 
ATOM     10  C   LIG    1        0.002  -0.252   2.559  0.00  0.00    -0.035 A 
ATOM     11  N   LIG    1       -1.460  -1.993   0.099  0.00  0.00    +0.384 N 
ATOM     12  H   LIG    1       -1.045  -2.324  -0.760  0.00  0.00    -0.081 HD
ATOM     13  C   LIG    1       -0.722  -2.582   1.199  0.00  0.00    -0.077 C 
ATOM     14  C   LIG    1        0.740  -2.124   1.150  0.00  0.00    -0.007 C 
ATOM     15  C   LIG    1        0.754  -0.591   1.292  0.00  0.00    -0.007 C 
ATOM     16  C   LIG    1        2.185  -0.054   1.352  0.00  0.00    +0.016 C 
ENDROOT
BRANCH   8  17
ATOM     17  O   LIG    1        0.767   0.048   6.111  0.00  0.00    -0.507 OA
ATOM     18  H   LIG    1        0.810  -0.810   6.556  0.00  0.00    +0.292 HD
ENDBRANCH   8  17
BRANCH  11  19
ATOM     19  C   LIG    1       -2.858  -2.440   0.156  0.00  0.00    -0.051 C 
BRANCH  19  20
ATOM     20  C   LIG    1       -2.915  -3.936  -0.018  0.00  0.00    -0.053 C 
ATOM     21  C   LIG    1       -3.515  -4.677   0.880  0.00  0.00    +0.002 C 
ENDBRANCH  19  20
ENDBRANCH  11  19
TORSDOF 3
