REMARK  Name = ZINC06717113
REMARK                            x       y       z     vdW  Elec       q    Type
REMARK                         _______ _______ _______ _____ _____    ______ ____
ROOT
ATOM      1  C   LIG    1        0.911  -1.419  -0.593  0.00  0.00    +0.101 A 
ATOM      2  C   LIG    1        0.796  -2.776  -0.287  0.00  0.00    +0.073 A 
ATOM      3  C   LIG    1        1.935  -3.592  -0.335  0.00  0.00    +0.011 A 
ATOM      4  C   LIG    1        1.494  -4.946   0.034  0.00  0.00    +0.010 A 
ATOM      5  C   LIG    1        2.129  -6.180   0.170  0.00  0.00    +0.030 A 
ATOM      6  C   LIG    1        1.377  -7.274   0.543  0.00  0.00    +0.111 A 
ATOM      7  N   LIG    1        0.080  -7.164   0.768  0.00  0.00    -0.261 NA
ATOM      8  C   LIG    1       -0.564  -6.021   0.652  0.00  0.00    +0.136 A 
ATOM      9  C   LIG    1        0.112  -4.865   0.281  0.00  0.00    +0.066 A 
ATOM     10  C   LIG    1        3.171  -3.047  -0.685  0.00  0.00    +0.034 A 
ATOM     11  C   LIG    1        3.273  -1.706  -0.985  0.00  0.00    +0.085 A 
ATOM     12 CL   LIG    1        4.812  -1.032  -1.421  0.00  0.00    -0.080 Cl
ATOM     13  N   LIG    1       -0.287  -3.557   0.084  0.00  0.00    -0.351 N 
ATOM     14  H   LIG    1       -1.195  -3.232   0.189  0.00  0.00    +0.166 HD
ATOM     15  C   LIG    1        2.146  -0.891  -0.946  0.00  0.00    +0.161 A 
ENDROOT
BRANCH   1  17
ATOM     16  C   LIG    1       -0.515   0.202  -1.599  0.00  0.00    +0.250 C 
ATOM     17  N   LIG    1       -0.219  -0.591  -0.550  0.00  0.00    -0.277 N 
ATOM     18  H   LIG    1       -0.789  -0.588   0.235  0.00  0.00    +0.155 HD
ATOM     19  O   LIG    1        0.254   0.279  -2.538  0.00  0.00    -0.270 OA
BRANCH  16  22
ATOM     20  C   LIG    1       -1.000   2.137  -3.696  0.00  0.00    +0.066 C 
ATOM     21  C   LIG    1       -2.026   1.909  -2.616  0.00  0.00    +0.050 A 
ATOM     22  C   LIG    1       -1.776   0.972  -1.612  0.00  0.00    +0.058 A 
ATOM     23  C   LIG    1       -2.744   0.769  -0.621  0.00  0.00    +0.016 A 
ATOM     24  C   LIG    1       -3.905   1.520  -0.675  0.00  0.00    +0.020 A 
ATOM     25  C   LIG    1       -4.077   2.429  -1.703  0.00  0.00    +0.111 A 
ATOM     26  N   LIG    1       -3.150   2.595  -2.627  0.00  0.00    -0.259 NA
ENDBRANCH  16  22
ENDBRANCH   1  17
BRANCH  15  27
ATOM     27  O   LIG    1        2.255   0.429  -1.250  0.00  0.00    -0.492 OA
ATOM     28  C   LIG    1        2.662   1.306  -0.197  0.00  0.00    +0.277 C 
ENDBRANCH  15  27
TORSDOF 3
