REMARK  Name = ZINC06268382
REMARK                            x       y       z     vdW  Elec       q    Type
REMARK                         _______ _______ _______ _____ _____    ______ ____
ROOT
ATOM      1  C   LIG    1       -2.808  -2.623   0.105  0.00  0.00    +0.008 C 
ATOM      2  C   LIG    1       -1.399  -2.043   0.246  0.00  0.00    +0.001 C 
ATOM      3  C   LIG    1       -1.435  -0.528   0.000  0.00  0.00    +0.052 C 
ATOM      4  C   LIG    1        0.002  -0.004   0.002  0.00  0.00    +0.170 C 
ATOM      5  N   LIG    1        0.806  -0.434   1.207  0.00  0.00    -0.277 N 
ATOM      6  H   LIG    1        1.667   0.056   1.475  0.00  0.00    +0.304 HD
ATOM      7  C   LIG    1        0.356  -1.466   1.904  0.00  0.00    +0.237 C 
ATOM      8  C   LIG    1       -0.019   1.526   0.010  0.00  0.00    +0.057 C 
ATOM      9  C   LIG    1       -0.880  -2.284   1.666  0.00  0.00    +0.127 C 
ENDROOT
BRANCH   7  10
ATOM     10  N   LIG    1        1.147  -1.798   2.972  0.00  0.00    -0.254 N 
ATOM     11  H   LIG    1        0.901  -2.541   3.545  0.00  0.00    +0.288 HD
ATOM     12  H   LIG    1        1.954  -1.291   3.155  0.00  0.00    +0.288 HD
ENDBRANCH   7  10
TORSDOF 1
