REMARK  Name = ZINC07979162
REMARK                            x       y       z     vdW  Elec       q    Type
REMARK                         _______ _______ _______ _____ _____    ______ ____
ROOT
ATOM      1  N   LIG    1        2.580  -0.816  -6.143  0.00  0.00    -0.174 NA
ATOM      2  C   LIG    1        1.414  -0.905  -7.034  0.00  0.00    +0.128 C 
ATOM      3  C   LIG    1        0.635   0.413  -6.954  0.00  0.00    +0.122 C 
ATOM      4  N   LIG    1        1.578   1.527  -7.130  0.00  0.00    -0.326 N 
ATOM      5  C   LIG    1        2.743   1.616  -6.240  0.00  0.00    +0.122 C 
ATOM      6  C   LIG    1        3.519   0.300  -6.316  0.00  0.00    +0.128 C 
ENDROOT
BRANCH   4   7
ATOM      7  C   LIG    1        1.369   2.484  -8.127  0.00  0.00    +0.060 A 
ATOM      8  C   LIG    1        0.630   3.627  -7.851  0.00  0.00    +0.025 A 
ATOM      9  C   LIG    1        0.427   4.571  -8.838  0.00  0.00    +0.002 A 
ATOM     10  C   LIG    1        0.958   4.379 -10.100  0.00  0.00    +0.002 A 
ATOM     11  C   LIG    1        1.694   3.242 -10.379  0.00  0.00    +0.034 A 
ATOM     12  C   LIG    1        1.906   2.296  -9.394  0.00  0.00    +0.142 A 
BRANCH  12  13
ATOM     13  N   LIG    1        2.699   1.083  -9.691  0.00  0.00    +0.008 N 
ATOM     14  O   LIG    1        3.165   0.920 -10.795  0.00  0.00    -0.130 OA
BRANCH  13  15
ATOM     15  O   LIG    1        2.880   0.253  -8.831  0.00  0.00    -0.396 OA
ATOM     16  H   LIG    1        2.518   0.379  -7.975  0.00  0.00    +0.329 HD
ENDBRANCH  13  15
ENDBRANCH  12  13
ENDBRANCH   4   7
BRANCH   1  17
ATOM     17  S   LIG    1        2.826  -1.950  -4.962  0.00  0.00    +0.061 S 
ATOM     18  O   LIG    1        2.148  -3.127  -5.380  0.00  0.00    -0.153 OA
ATOM     19  O   LIG    1        4.217  -1.937  -4.669  0.00  0.00    -0.153 OA
BRANCH  17  23
ATOM     20  C   LIG    1        0.707  -0.490  -1.238  0.00  0.00    -0.042 A 
ATOM     21  C   LIG    1        0.036  -1.284  -2.148  0.00  0.00    +0.006 A 
ATOM     22  C   LIG    1        0.683  -1.730  -3.286  0.00  0.00    +0.029 A 
ATOM     23  C   LIG    1        2.001  -1.381  -3.513  0.00  0.00    +0.105 A 
ATOM     24  C   LIG    1        2.672  -0.586  -2.603  0.00  0.00    +0.029 A 
ATOM     25  C   LIG    1        2.024  -0.137  -1.467  0.00  0.00    +0.006 A 
BRANCH  20  27
ATOM     26  C   LIG    1       -0.019   1.526   0.010  0.00  0.00    +0.015 C 
ATOM     27  C   LIG    1        0.002  -0.004   0.002  0.00  0.00    -0.013 C 
ATOM     28  C   LIG    1       -1.433  -0.534   0.013  0.00  0.00    +0.015 C 
ATOM     29  C   LIG    1        0.742  -0.511   1.242  0.00  0.00    +0.015 C 
ENDBRANCH  20  27
ENDBRANCH  17  23
ENDBRANCH   1  17
TORSDOF 6
