REMARK  Name = ZINC06643273
REMARK                            x       y       z     vdW  Elec       q    Type
REMARK                         _______ _______ _______ _____ _____    ______ ____
ROOT
ATOM      1  C   LIG    1        2.394   0.014  -0.021  0.00  0.00    +0.125 A 
ATOM      2  C   LIG    1        1.194  -0.696  -0.013  0.00  0.00    +0.065 A 
ATOM      3  C   LIG    1        0.002  -0.004   0.002  0.00  0.00    +0.116 A 
ATOM      4  N   LIG    1       -0.016   1.316   0.009  0.00  0.00    -0.240 NA
ATOM      5  C   LIG    1        1.101   2.029   0.002  0.00  0.00    +0.120 A 
ATOM      6  C   LIG    1        2.341   1.402  -0.013  0.00  0.00    +0.088 A 
ENDROOT
BRANCH   5   7
ATOM      7  N   LIG    1        1.032   3.417   0.010  0.00  0.00    -0.343 N 
ATOM      8  H   LIG    1        1.847   3.944   0.005  0.00  0.00    +0.144 HD
ATOM      9  H   LIG    1        0.169   3.860   0.020  0.00  0.00    +0.144 HD
ENDBRANCH   5   7
BRANCH   1  11
ATOM     10  C   LIG    1        3.546  -2.064  -0.044  0.00  0.00    +0.277 C 
ATOM     11  O   LIG    1        3.586  -0.635  -0.036  0.00  0.00    -0.495 OA
ENDBRANCH   1  11
TORSDOF 2
