REMARK  Name = ZINC06728311
REMARK                            x       y       z     vdW  Elec       q    Type
REMARK                         _______ _______ _______ _____ _____    ______ ____
ROOT
ATOM      1  N   LIG    1       -2.182  -0.807   3.554  0.00  0.00    -0.194 N 
ENDROOT
BRANCH   1   2
ATOM      2  C   LIG    1       -2.047  -2.137   3.961  0.00  0.00    +0.052 A 
ATOM      3  C   LIG    1       -2.967  -2.692   4.841  0.00  0.00    +0.025 A 
ATOM      4  C   LIG    1       -2.831  -4.006   5.242  0.00  0.00    +0.005 A 
ATOM      5  C   LIG    1       -1.780  -4.770   4.769  0.00  0.00    -0.050 A 
ATOM      6  C   LIG    1       -1.634  -6.203   5.209  0.00  0.00    +0.044 C 
ATOM      7  C   LIG    1       -0.862  -4.220   3.893  0.00  0.00    +0.005 A 
ATOM      8  C   LIG    1       -0.995  -2.908   3.483  0.00  0.00    +0.025 A 
ENDBRANCH   1   2
BRANCH   1   9
ATOM      9  S   LIG    1       -1.958   0.420   4.643  0.00  0.00    +0.075 S 
ATOM     10  O   LIG    1       -1.465   1.531   3.907  0.00  0.00    -0.150 OA
ATOM     11  O   LIG    1       -1.255  -0.138   5.744  0.00  0.00    -0.150 OA
BRANCH   9  12
ATOM     12  C   LIG    1       -3.550   0.880   5.243  0.00  0.00    +0.109 A 
ATOM     13  C   LIG    1       -4.335   1.756   4.516  0.00  0.00    +0.032 A 
ATOM     14  C   LIG    1       -5.583   2.119   4.985  0.00  0.00    +0.047 A 
ATOM     15  C   LIG    1       -6.048   1.603   6.186  0.00  0.00    +0.120 A 
ATOM     16  C   LIG    1       -5.259   0.724   6.913  0.00  0.00    +0.047 A 
ATOM     17  C   LIG    1       -4.014   0.360   6.437  0.00  0.00    +0.032 A 
BRANCH  15  18
ATOM     18  O   LIG    1       -7.276   1.958   6.649  0.00  0.00    -0.495 OA
ATOM     19  C   LIG    1       -7.690   1.389   7.892  0.00  0.00    +0.277 C 
ENDBRANCH  15  18
ENDBRANCH   9  12
ENDBRANCH   1   9
BRANCH   1  20
ATOM     20  C   LIG    1       -2.522  -0.499   2.162  0.00  0.00    +0.227 C 
BRANCH  20  22
ATOM     21  N   LIG    1       -4.563  -0.303   0.780  0.00  0.00    -0.301 N 
ATOM     22  C   LIG    1       -4.017  -0.554   1.986  0.00  0.00    +0.235 C 
ATOM     23  O   LIG    1       -4.729  -0.824   2.930  0.00  0.00    -0.274 OA
BRANCH  21  25
ATOM     24  C   LIG    1       -3.494   1.538  -0.424  0.00  0.00    +0.024 C 
ATOM     25  C   LIG    1       -3.703   0.024  -0.360  0.00  0.00    +0.104 C 
ENDBRANCH  21  25
BRANCH  21  26
ATOM     26  C   LIG    1       -6.017  -0.356   0.608  0.00  0.00    +0.104 C 
ATOM     27  C   LIG    1       -6.433  -1.775   0.216  0.00  0.00    +0.024 C 
ENDBRANCH  21  26
ENDBRANCH  20  22
ENDBRANCH   1  20
TORSDOF 8
