REMARK  Name = ZINC06722236
REMARK                            x       y       z     vdW  Elec       q    Type
REMARK                         _______ _______ _______ _____ _____    ______ ____
ROOT
ATOM      1  C   LIG    1       -4.901   1.014   0.246  0.00  0.00    +0.163 C 
ENDROOT
BRANCH   1   3
ATOM      2  C   LIG    1       -6.338   2.483   1.555  0.00  0.00    +0.217 C 
ATOM      3  N   LIG    1       -6.004   1.973   0.353  0.00  0.00    -0.303 N 
ATOM      4  H   LIG    1       -6.493   2.240  -0.440  0.00  0.00    +0.149 HD
ATOM      5  O   LIG    1       -5.726   2.150   2.547  0.00  0.00    -0.275 OA
BRANCH   2  10
ATOM      6  C   LIG    1       -4.748   6.424   3.269  0.00  0.00    +0.007 C 
ATOM      7  C   LIG    1       -6.040   5.773   2.772  0.00  0.00    -0.014 C 
ATOM      8  C   LIG    1       -6.351   4.540   3.624  0.00  0.00    +0.004 C 
ATOM      9  C   LIG    1       -7.643   3.889   3.127  0.00  0.00    +0.013 C 
ATOM     10  C   LIG    1       -7.473   3.469   1.665  0.00  0.00    +0.075 C 
ATOM     11  C   LIG    1       -7.162   4.702   0.814  0.00  0.00    +0.013 C 
ATOM     12  C   LIG    1       -5.870   5.353   1.311  0.00  0.00    +0.004 C 
ENDBRANCH   2  10
ENDBRANCH   1   3
BRANCH   1  13
ATOM     13  C   LIG    1       -3.597   1.760   0.130  0.00  0.00    +0.238 C 
ATOM     14  N   LIG    1       -2.439   1.080   0.019  0.00  0.00    -0.284 N 
ATOM     15  H   LIG    1       -2.450   0.114  -0.063  0.00  0.00    +0.155 HD
ATOM     16  O   LIG    1       -3.589   2.973   0.137  0.00  0.00    -0.273 OA
BRANCH  14  17
ATOM     17  C   LIG    1       -1.223   1.766   0.023  0.00  0.00    +0.036 A 
ATOM     18  C   LIG    1       -0.135   1.296  -0.712  0.00  0.00    +0.043 A 
ATOM     19  C   LIG    1        1.047   2.006  -0.686  0.00  0.00    +0.112 A 
ATOM     20  N   LIG    1        1.157   3.113   0.025  0.00  0.00    -0.263 NA
ATOM     21  C   LIG    1        0.151   3.586   0.737  0.00  0.00    +0.112 A 
ATOM     22  C   LIG    1       -1.064   2.935   0.765  0.00  0.00    +0.043 A 
ENDBRANCH  14  17
ENDBRANCH   1  13
BRANCH   1  23
ATOM     23  C   LIG    1       -5.102   0.143  -0.996  0.00  0.00    +0.069 C 
BRANCH  23  24
ATOM     24  C   LIG    1       -6.343  -0.695  -0.826  0.00  0.00    -0.020 A 
ATOM     25  C   LIG    1       -6.399  -1.956  -0.368  0.00  0.00    +0.087 A 
ATOM     26  N   LIG    1       -7.696  -2.389  -0.353  0.00  0.00    -0.360 N 
ATOM     27  C   LIG    1       -8.528  -1.393  -0.812  0.00  0.00    +0.047 A 
ATOM     28  C   LIG    1       -9.904  -1.304  -0.997  0.00  0.00    +0.026 A 
ATOM     29  C   LIG    1      -10.455  -0.139  -1.485  0.00  0.00    +0.002 A 
ATOM     30  C   LIG    1       -9.650   0.949  -1.796  0.00  0.00    +0.001 A 
ATOM     31  C   LIG    1       -8.296   0.883  -1.621  0.00  0.00    +0.010 A 
ATOM     32  H   LIG    1       -7.987  -3.268  -0.062  0.00  0.00    +0.165 HD
ATOM     33  C   LIG    1       -7.718  -0.286  -1.123  0.00  0.00    +0.003 A 
ENDBRANCH  23  24
ENDBRANCH   1  23
TORSDOF 6
