REMARK  Name = ZINC08451841
REMARK                            x       y       z     vdW  Elec       q    Type
REMARK                         _______ _______ _______ _____ _____    ______ ____
ROOT
ATOM      1  N   LIG    1       -0.571  -1.512   5.582  0.00  0.00    -0.219 N 
ATOM      2  C   LIG    1       -1.806  -1.668   6.025  0.00  0.00    +0.261 C 
ATOM      3  C   LIG    1       -2.007  -2.488   7.176  0.00  0.00    +0.081 C 
ATOM      4  S   LIG    1       -0.329  -2.986   7.537  0.00  0.00    -0.026 S 
ATOM      5  C   LIG    1       -3.164  -2.806   7.824  0.00  0.00    +0.046 C 
ATOM      6  O   LIG    1       -2.745  -1.128   5.468  0.00  0.00    -0.269 OA
ATOM      7  C   LIG    1        0.470  -2.116   6.198  0.00  0.00    +0.286 C 
ATOM      8  O   LIG    1        1.652  -2.075   5.912  0.00  0.00    -0.262 OA
ENDROOT
BRANCH   5   9
ATOM      9  C   LIG    1       -3.120  -3.536   9.034  0.00  0.00    +0.048 A 
ATOM     10  C   LIG    1       -1.981  -3.892   9.734  0.00  0.00    +0.027 A 
ATOM     11  C   LIG    1       -2.397  -4.601  10.865  0.00  0.00    +0.020 A 
ATOM     12  C   LIG    1       -3.750  -4.667  10.842  0.00  0.00    +0.092 A 
ATOM     13  N   LIG    1       -4.205  -4.018   9.736  0.00  0.00    -0.316 N 
BRANCH  13  14
ATOM     14  C   LIG    1       -5.549  -3.867   9.371  0.00  0.00    +0.047 A 
ATOM     15  C   LIG    1       -6.049  -2.606   9.066  0.00  0.00    +0.026 A 
ATOM     16  C   LIG    1       -7.374  -2.451   8.704  0.00  0.00    +0.003 A 
ATOM     17  C   LIG    1       -8.210  -3.547   8.643  0.00  0.00    +0.015 A 
ATOM     18  C   LIG    1       -7.718  -4.819   8.947  0.00  0.00    +0.061 A 
ATOM     19  C   LIG    1       -6.378  -4.975   9.307  0.00  0.00    +0.041 A 
BRANCH  18  20
ATOM     20  C   LIG    1       -8.609  -5.993   8.883  0.00  0.00    +0.337 C 
ATOM     21  O   LIG    1       -9.781  -5.854   8.563  0.00  0.00    -0.245 OA
BRANCH  20  22
ATOM     22  O   LIG    1       -8.176  -7.105   9.149  0.00  0.00    -0.477 OA
ATOM     23  H   LIG    1       -7.278  -7.211   9.394  0.00  0.00    +0.295 HD
ENDBRANCH  20  22
ENDBRANCH  18  20
ENDBRANCH  13  14
ENDBRANCH   5   9
BRANCH   1  24
ATOM     24  C   LIG    1       -0.326  -0.677   4.403  0.00  0.00    +0.213 C 
BRANCH  24  27
ATOM     25  N   LIG    1       -0.213  -0.969   1.950  0.00  0.00    -0.284 N 
ATOM     26  H   LIG    1       -0.077  -0.012   1.873  0.00  0.00    +0.155 HD
ATOM     27  C   LIG    1       -0.406  -1.527   3.161  0.00  0.00    +0.235 C 
ATOM     28  O   LIG    1       -0.643  -2.713   3.252  0.00  0.00    -0.274 OA
BRANCH  25  36
ATOM     29  C   LIG    1        1.574  -3.183   1.865  0.00  0.00    +0.045 C 
ATOM     30  C   LIG    1        0.648  -2.861   0.720  0.00  0.00    -0.029 A 
ATOM     31  C   LIG    1        0.646  -3.654  -0.411  0.00  0.00    +0.005 A 
ATOM     32  C   LIG    1       -0.203  -3.360  -1.462  0.00  0.00    +0.001 A 
ATOM     33  C   LIG    1       -1.052  -2.272  -1.385  0.00  0.00    +0.005 A 
ATOM     34  C   LIG    1       -1.055  -1.475  -0.257  0.00  0.00    -0.029 A 
ATOM     35  C   LIG    1       -1.981  -0.289  -0.174  0.00  0.00    +0.045 C 
ATOM     36  C   LIG    1       -0.208  -1.771   0.803  0.00  0.00    +0.039 A 
ENDBRANCH  25  36
ENDBRANCH  24  27
ENDBRANCH   1  24
TORSDOF 7
