REMARK  Name = ZINC06068314
REMARK                            x       y       z     vdW  Elec       q    Type
REMARK                         _______ _______ _______ _____ _____    ______ ____
ROOT
ATOM      1  C   LIG    1       -1.492  -4.513   0.906  0.00  0.00    +0.179 C 
ATOM      2  C   LIG    1       -1.293  -4.465   2.370  0.00  0.00    -0.011 A 
ATOM      3  C   LIG    1       -1.330  -3.148   2.876  0.00  0.00    +0.007 A 
ATOM      4  C   LIG    1       -1.226  -2.891   4.220  0.00  0.00    +0.000 A 
ATOM      5  C   LIG    1       -1.095  -3.958   5.092  0.00  0.00    +0.000 A 
ATOM      6  C   LIG    1       -1.038  -5.230   4.586  0.00  0.00    +0.004 A 
ATOM      7  C   LIG    1       -1.104  -5.488   3.196  0.00  0.00    -0.041 A 
ATOM      8  C   LIG    1       -0.852  -6.959   2.947  0.00  0.00    +0.040 C 
ATOM      9  C   LIG    1       -1.755  -7.589   1.934  0.00  0.00    +0.040 C 
ATOM     10  C   LIG    1       -1.654  -7.006   0.539  0.00  0.00    -0.041 A 
ATOM     11  C   LIG    1       -1.631  -8.052  -0.412  0.00  0.00    +0.004 A 
ATOM     12  C   LIG    1       -1.635  -7.808  -1.761  0.00  0.00    +0.000 A 
ATOM     13  C   LIG    1       -1.674  -6.498  -2.205  0.00  0.00    +0.000 A 
ATOM     14  C   LIG    1       -1.659  -5.487  -1.279  0.00  0.00    +0.007 A 
ATOM     15  C   LIG    1       -1.611  -5.749   0.107  0.00  0.00    -0.011 A 
ENDROOT
BRANCH   1  16
ATOM     16  O   LIG    1       -0.416  -3.767   0.332  0.00  0.00    -0.364 OA
BRANCH  16  24
ATOM     17  C   LIG    1        5.160  -4.276   0.247  0.00  0.00    -0.092 C 
ATOM     18  N   LIG    1        3.723  -3.975   0.224  0.00  0.00    +0.380 N 
ATOM     19  C   LIG    1        3.494  -2.571  -0.141  0.00  0.00    -0.092 C 
ATOM     20  C   LIG    1        3.102  -4.286   1.539  0.00  0.00    -0.063 C 
ATOM     21  C   LIG    1        2.968  -5.826   1.541  0.00  0.00    -0.016 C 
ATOM     22  C   LIG    1        2.909  -6.220   0.051  0.00  0.00    -0.016 C 
ATOM     23  C   LIG    1        1.690  -3.677   1.531  0.00  0.00    +0.017 C 
ATOM     24  C   LIG    1        0.859  -4.402   0.450  0.00  0.00    +0.117 C 
ATOM     25  C   LIG    1        1.589  -4.331  -0.894  0.00  0.00    +0.017 C 
ATOM     26  C   LIG    1        3.013  -4.882  -0.717  0.00  0.00    -0.063 C 
ENDBRANCH  16  24
ENDBRANCH   1  16
TORSDOF 2
