REMARK  Name = ZINC06962446
REMARK                            x       y       z     vdW  Elec       q    Type
REMARK                         _______ _______ _______ _____ _____    ______ ____
ROOT
ATOM      1  C   LIG    1        1.159   3.168   0.007  0.00  0.00    +0.001 A 
ATOM      2  C   LIG    1        1.155   1.775   0.001  0.00  0.00    +0.002 A 
ATOM      3  C   LIG    1       -0.013   1.076   0.008  0.00  0.00    +0.028 A 
ATOM      4  C   LIG    1       -1.238   1.765   0.018  0.00  0.00    +0.071 A 
ATOM      5  C   LIG    1       -1.232   3.182   0.029  0.00  0.00    +0.000 A 
ATOM      6  C   LIG    1       -2.459   3.870   0.044  0.00  0.00    +0.012 A 
ATOM      7  C   LIG    1       -3.610   3.134   0.051  0.00  0.00    +0.027 A 
ATOM      8  C   LIG    1       -3.546   1.743   0.044  0.00  0.00    +0.079 A 
ATOM      9  N   LIG    1       -2.400   1.105   0.031  0.00  0.00    -0.248 NA
ATOM     10  C   LIG    1       -0.007   3.870   0.021  0.00  0.00    +0.010 A 
ENDROOT
BRANCH   8  11
ATOM     11  C   LIG    1       -4.827   0.949   0.052  0.00  0.00    +0.284 C 
BRANCH  11  12
ATOM     12  O   LIG    1       -5.941   1.844   0.066  0.00  0.00    -0.482 OA
BRANCH  12  13
ATOM     13  C   LIG    1       -7.181   1.285   0.074  0.00  0.00    +0.162 A 
ATOM     14  C   LIG    1       -7.322  -0.093   0.064  0.00  0.00    +0.049 A 
ATOM     15  C   LIG    1       -8.583  -0.659   0.078  0.00  0.00    +0.004 A 
ATOM     16  C   LIG    1       -9.706   0.147   0.092  0.00  0.00    +0.004 A 
ATOM     17  C   LIG    1       -9.573   1.523   0.097  0.00  0.00    +0.049 A 
ATOM     18  C   LIG    1       -8.312   2.097   0.088  0.00  0.00    +0.158 A 
BRANCH  18  19
ATOM     19  O   LIG    1       -8.178   3.450   0.092  0.00  0.00    -0.503 OA
ATOM     20  H   LIG    1       -8.148   3.846  -0.790  0.00  0.00    +0.292 HD
ENDBRANCH  18  19
ENDBRANCH  12  13
ENDBRANCH  11  12
ENDBRANCH   8  11
TORSDOF 4
