REMARK  Name = ZINC08195650
REMARK                            x       y       z     vdW  Elec       q    Type
REMARK                         _______ _______ _______ _____ _____    ______ ____
ROOT
ATOM      1  C   UNK    1       -1.952   1.081   5.845  0.00  0.00    +0.027 C 
ENDROOT
BRANCH   1   2
ATOM      2  C   UNK    1       -1.247   0.595   4.606  0.00  0.00    -0.029 C 
ATOM      3  C   UNK    1       -0.769   1.457   3.743  0.00  0.00    -0.002 C 
BRANCH   3   4
ATOM      4  C   UNK    1       -0.064   0.971   2.503  0.00  0.00    +0.125 C 
BRANCH   4   5
ATOM      5  O   UNK    1       -0.146  -0.454   2.436  0.00  0.00    -0.389 OA
ATOM      6  H   UNK    1       -1.050  -0.794   2.402  0.00  0.00    +0.210 HD
ENDBRANCH   4   5
BRANCH   4   7
ATOM      7  C   UNK    1       -0.729   1.579   1.267  0.00  0.00    -0.016 C 
BRANCH   7   8
ATOM      8  N   UNK    1       -0.655   3.050   1.314  0.00  0.00    +0.383 N 
ATOM      9  H   UNK    1       -1.077   3.437   0.461  0.00  0.00    -0.089 HD
ATOM     10  H   UNK    1        0.317   3.350   1.369  0.00  0.00    -0.089 HD
ATOM     11  H   UNK    1       -1.165   3.400   2.124  0.00  0.00    -0.089 HD
ENDBRANCH   7   8
BRANCH   7  12
ATOM     12  C   UNK    1       -0.013   1.086   0.008  0.00  0.00    +0.142 C 
BRANCH  12  13
ATOM     13  O   UNK    1       -0.704   1.559  -1.150  0.00  0.00    -0.397 OA
ATOM     14  H   UNK    1       -0.304   1.284  -1.986  0.00  0.00    +0.209 HD
ENDBRANCH  12  13
ENDBRANCH   7  12
ENDBRANCH   4   7
ENDBRANCH   3   4
ENDBRANCH   1   2
BRANCH   1  15
ATOM     15  C   UNK    1       -3.345   0.451   5.920  0.00  0.00    +0.004 C 
BRANCH  15  16
ATOM     16  C   UNK    1       -4.061   0.945   7.179  0.00  0.00    +0.000 C 
BRANCH  16  17
ATOM     17  C   UNK    1       -5.454   0.315   7.253  0.00  0.00    +0.000 C 
BRANCH  17  18
ATOM     18  C   UNK    1       -6.170   0.809   8.512  0.00  0.00    +0.000 C 
BRANCH  18  19
ATOM     19  C   UNK    1       -7.562   0.179   8.586  0.00  0.00    +0.000 C 
BRANCH  19  20
ATOM     20  C   UNK    1       -8.279   0.673   9.845  0.00  0.00    -0.000 C 
BRANCH  20  21
ATOM     21  C   UNK    1       -9.671   0.043   9.919  0.00  0.00    -0.000 C 
BRANCH  21  22
ATOM     22  C   UNK    1      -10.387   0.537  11.178  0.00  0.00    -0.000 C 
BRANCH  22  23
ATOM     23  C   UNK    1      -11.780  -0.093  11.252  0.00  0.00    -0.000 C 
BRANCH  23  24
ATOM     24  C   UNK    1      -12.496   0.401  12.511  0.00  0.00    -0.000 C 
BRANCH  24  26
ATOM     25  C   UNK    1      -14.605   0.265  13.844  0.00  0.00    +0.004 C 
ATOM     26  C   UNK    1      -13.889  -0.229  12.586  0.00  0.00    -0.003 C 
ENDBRANCH  24  26
ENDBRANCH  23  24
ENDBRANCH  22  23
ENDBRANCH  21  22
ENDBRANCH  20  21
ENDBRANCH  19  20
ENDBRANCH  18  19
ENDBRANCH  17  18
ENDBRANCH  16  17
ENDBRANCH  15  16
ENDBRANCH   1  15
TORSDOF 18
