REMARK  Name = ZINC08449876
REMARK                            x       y       z     vdW  Elec       q    Type
REMARK                         _______ _______ _______ _____ _____    ______ ____
ROOT
ATOM      1  C   LIG    1        0.108  -8.676  -1.965  0.00  0.00    +0.059 A 
ATOM      2  C   LIG    1        0.116  -9.219  -0.677  0.00  0.00    +0.017 A 
ATOM      3  C   LIG    1        0.135 -10.586  -0.508  0.00  0.00    +0.025 A 
ATOM      4  C   LIG    1        0.146 -11.425  -1.617  0.00  0.00    +0.044 A 
ATOM      5  C   LIG    1        0.139 -10.888  -2.900  0.00  0.00    +0.025 A 
ATOM      6  C   LIG    1        0.114  -9.523  -3.077  0.00  0.00    +0.017 A 
ENDROOT
BRANCH   4   7
ATOM      7  N   LIG    1        0.166 -12.812  -1.442  0.00  0.00    -0.210 N 
ATOM      8  C   LIG    1        0.170 -13.410  -0.220  0.00  0.00    +0.230 C 
ATOM      9  C   LIG    1        0.508 -14.846  -0.464  0.00  0.00    +0.089 C 
ATOM     10  C   LIG    1       -0.094 -15.913   0.424  0.00  0.00    +0.029 C 
ATOM     11  C   LIG    1        0.419 -17.263  -0.118  0.00  0.00    +0.071 C 
ATOM     12 BR   LIG    1       -0.368 -18.719   0.943  0.00  0.00    -0.087 Br
ATOM     13  C   LIG    1        0.051 -17.463  -1.584  0.00  0.00    +0.071 C 
ATOM     14 BR   LIG    1        0.915 -19.103  -2.241  0.00  0.00    -0.087 Br
ATOM     15  C   LIG    1        0.497 -16.279  -2.461  0.00  0.00    +0.029 C 
ATOM     16  C   LIG    1       -0.114 -15.034  -1.880  0.00  0.00    +0.089 C 
ATOM     17  O   LIG    1       -0.056 -12.885   0.850  0.00  0.00    -0.275 OA
ATOM     18  C   LIG    1        0.178 -13.695  -2.476  0.00  0.00    +0.230 C 
ATOM     19  O   LIG    1        0.387 -13.448  -3.644  0.00  0.00    -0.275 OA
ENDBRANCH   4   7
BRANCH   1  20
ATOM     20  C   LIG    1        0.088  -7.213  -2.150  0.00  0.00    +0.340 C 
ATOM     21  O   LIG    1        0.076  -6.742  -3.270  0.00  0.00    -0.245 OA
BRANCH  20  22
ATOM     22  O   LIG    1        0.083  -6.398  -1.077  0.00  0.00    -0.453 OA
BRANCH  22  23
ATOM     23  C   LIG    1        0.063  -4.992  -1.331  0.00  0.00    +0.311 C 
BRANCH  23  24
ATOM     24  C   LIG    1        0.059  -4.245  -0.021  0.00  0.00    +0.200 C 
ATOM     25  O   LIG    1        0.072  -4.857   1.025  0.00  0.00    -0.288 OA
BRANCH  24  30
ATOM     26  C   LIG    1       -0.018   1.503   0.010  0.00  0.00    +0.044 C 
ATOM     27  C   LIG    1        0.002  -0.004   0.002  0.00  0.00    -0.047 A 
ATOM     28  C   LIG    1        0.006  -0.686  -1.203  0.00  0.00    +0.004 A 
ATOM     29  C   LIG    1        0.024  -2.064  -1.219  0.00  0.00    +0.012 A 
ATOM     30  C   LIG    1        0.040  -2.774  -0.013  0.00  0.00    +0.021 A 
ATOM     31  C   LIG    1        0.036  -2.078   1.200  0.00  0.00    +0.015 A 
ATOM     32  C   LIG    1        0.023  -0.699   1.199  0.00  0.00    -0.047 A 
ATOM     33  C   LIG    1        0.025   0.054   2.504  0.00  0.00    +0.044 C 
ENDBRANCH  24  30
ENDBRANCH  23  24
ENDBRANCH  22  23
ENDBRANCH  20  22
ENDBRANCH   1  20
TORSDOF 6
