REMARK  Name = ZINC05933945
REMARK                            x       y       z     vdW  Elec       q    Type
REMARK                         _______ _______ _______ _____ _____    ______ ____
ROOT
ATOM      1  C   LIG    1        0.086  -2.773   0.080  0.00  0.00    +0.140 C 
ATOM      2  S   LIG    1       -1.412  -1.946   0.091  0.00  0.00    -0.018 S 
ENDROOT
BRANCH   1   3
ATOM      3  N   LIG    1        1.238  -2.081  -0.032  0.00  0.00    -0.295 N 
ATOM      4  H   LIG    1        2.084  -2.553  -0.080  0.00  0.00    +0.154 HD
BRANCH   3  10
ATOM      5  C   LIG    1        0.301   1.403   0.677  0.00  0.00    +0.002 A 
ATOM      6  C   LIG    1        1.160   2.083  -0.167  0.00  0.00    +0.002 A 
ATOM      7  C   LIG    1        2.045   1.384  -0.967  0.00  0.00    +0.022 A 
ATOM      8  C   LIG    1        2.074   0.002  -0.925  0.00  0.00    +0.062 A 
ATOM      9 CL   LIG    1        3.185  -0.875  -1.929  0.00  0.00    -0.082 Cl
ATOM     10  C   LIG    1        1.212  -0.683  -0.077  0.00  0.00    +0.051 A 
ATOM     11  C   LIG    1        0.324   0.023   0.724  0.00  0.00    +0.025 A 
ENDBRANCH   3  10
ENDBRANCH   1   3
BRANCH   1  12
ATOM     12  N   LIG    1        0.115  -4.117   0.183  0.00  0.00    -0.282 N 
ATOM     13  H   LIG    1        0.965  -4.580   0.251  0.00  0.00    +0.155 HD
BRANCH  12  14
ATOM     14  C   LIG    1       -1.075  -4.840   0.191  0.00  0.00    +0.124 A 
ATOM     15  C   LIG    1       -1.037  -6.231   0.183  0.00  0.00    +0.044 A 
ATOM     16  C   LIG    1       -2.226  -6.937   0.192  0.00  0.00    +0.005 A 
ATOM     17  C   LIG    1       -3.419  -6.226   0.208  0.00  0.00    +0.020 A 
ATOM     18  C   LIG    1       -3.383  -4.846   0.215  0.00  0.00    +0.113 A 
ATOM     19  N   LIG    1       -2.233  -4.199   0.212  0.00  0.00    -0.240 NA
ENDBRANCH  12  14
ENDBRANCH   1  12
TORSDOF 4
