REMARK  Name = ZINC05966782
REMARK                            x       y       z     vdW  Elec       q    Type
REMARK                         _______ _______ _______ _____ _____    ______ ____
ROOT
ATOM      1  C   LIG    1        4.888   4.025   1.429  0.00  0.00    -0.096 C 
ATOM      2  N   LIG    1        4.329   3.127   0.398  0.00  0.00    +0.379 N 
ATOM      3  H   LIG    1        5.069   2.497   0.067  0.00  0.00    -0.082 HD
ATOM      4  C   LIG    1        3.829   3.921  -0.745  0.00  0.00    -0.066 C 
ATOM      5  C   LIG    1        2.711   4.850  -0.276  0.00  0.00    +0.033 C 
ATOM      6  C   LIG    1        1.358   4.197  -0.421  0.00  0.00    -0.034 A 
ATOM      7  C   LIG    1        0.265   5.029  -0.627  0.00  0.00    +0.053 A 
ATOM      8  C   LIG    1       -1.011   4.504  -0.724  0.00  0.00    +0.160 A 
ATOM      9  C   LIG    1       -1.199   3.129  -0.623  0.00  0.00    +0.177 A 
ATOM     10  C   LIG    1       -0.106   2.302  -0.431  0.00  0.00    +0.089 A 
ATOM     11 CL   LIG    1       -0.335   0.586  -0.313  0.00  0.00    -0.079 Cl
ATOM     12  C   LIG    1        1.173   2.836  -0.338  0.00  0.00    -0.023 A 
ATOM     13  C   LIG    1        2.325   1.880  -0.175  0.00  0.00    +0.018 C 
ATOM     14  C   LIG    1        3.237   2.319   0.974  0.00  0.00    -0.074 C 
ENDROOT
BRANCH   5  15
ATOM     15  C   LIG    1        2.739   6.112  -1.099  0.00  0.00    -0.042 A 
ATOM     16  C   LIG    1        2.579   6.046  -2.470  0.00  0.00    +0.004 A 
ATOM     17  C   LIG    1        2.600   7.204  -3.225  0.00  0.00    +0.000 A 
ATOM     18  C   LIG    1        2.792   8.427  -2.610  0.00  0.00    +0.000 A 
ATOM     19  C   LIG    1        2.958   8.492  -1.239  0.00  0.00    +0.000 A 
ATOM     20  C   LIG    1        2.932   7.335  -0.484  0.00  0.00    +0.004 A 
ENDBRANCH   5  15
BRANCH   8  21
ATOM     21  O   LIG    1       -2.076   5.327  -0.920  0.00  0.00    -0.503 OA
ATOM     22  H   LIG    1       -2.285   5.484  -1.851  0.00  0.00    +0.292 HD
ENDBRANCH   8  21
BRANCH   9  23
ATOM     23  O   LIG    1       -2.450   2.602  -0.709  0.00  0.00    -0.502 OA
ATOM     24  H   LIG    1       -2.905   2.529   0.141  0.00  0.00    +0.292 HD
ENDBRANCH   9  23
TORSDOF 3
