REMARK  Name = ZINC08144603
REMARK                            x       y       z     vdW  Elec       q    Type
REMARK                         _______ _______ _______ _____ _____    ______ ____
ROOT
ATOM      1  C   LIG    1       -0.018   1.503   0.010  0.00  0.00    +0.086 C 
ATOM      2  C   LIG    1        0.002  -0.004   0.002  0.00  0.00    +0.109 A 
ATOM      3  N   LIG    1        0.005  -0.629  -1.144  0.00  0.00    -0.218 NA
ATOM      4  C   LIG    1        0.023  -1.966  -1.213  0.00  0.00    +0.144 A 
ATOM      5  C   LIG    1        0.039  -2.715  -0.024  0.00  0.00    +0.155 A 
ATOM      6  C   LIG    1        0.035  -2.011   1.207  0.00  0.00    +0.271 A 
ATOM      7  O   LIG    1        0.048  -2.611   2.268  0.00  0.00    -0.266 OA
ATOM      8  N   LIG    1        0.022  -0.661   1.178  0.00  0.00    -0.310 N 
ATOM      9  H   LIG    1        0.024  -0.162   2.009  0.00  0.00    +0.170 HD
ENDROOT
BRANCH   4  10
ATOM     10  N   LIG    1        0.025  -2.599  -2.432  0.00  0.00    -0.324 N 
ATOM     11  H   LIG    1        0.038  -3.568  -2.475  0.00  0.00    +0.148 HD
BRANCH  10  12
ATOM     12  C   LIG    1        0.008  -1.810  -3.666  0.00  0.00    +0.139 C 
BRANCH  12  13
ATOM     13  C   LIG    1        0.015  -2.737  -4.854  0.00  0.00    -0.012 A 
ATOM     14  C   LIG    1        1.213  -3.157  -5.410  0.00  0.00    +0.008 A 
ATOM     15  C   LIG    1        1.171  -4.010  -6.503  0.00  0.00    +0.020 A 
ATOM     16  C   LIG    1       -0.056  -4.410  -6.998  0.00  0.00    +0.111 A 
ATOM     17  N   LIG    1       -1.176  -3.990  -6.443  0.00  0.00    -0.263 NA
ATOM     18  C   LIG    1       -1.174  -3.184  -5.400  0.00  0.00    +0.115 A 
ENDBRANCH  12  13
ENDBRANCH  10  12
ENDBRANCH   4  10
BRANCH   5  19
ATOM     19  C   LIG    1        0.058  -4.146  -0.055  0.00  0.00    +0.108 C 
ATOM     20  N   LIG    1        0.073  -5.282  -0.079  0.00  0.00    -0.191 NA
ENDBRANCH   5  19
TORSDOF 4
