REMARK  Name = ZINC06385085
REMARK                            x       y       z     vdW  Elec       q    Type
REMARK                         _______ _______ _______ _____ _____    ______ ____
ROOT
ATOM      1  N   LIG    1       -1.175   7.197  -4.305  0.00  0.00    -0.280 N 
ATOM      2  C   LIG    1       -0.177   8.117  -3.775  0.00  0.00    +0.113 C 
ATOM      3  C   LIG    1       -0.565   8.610  -2.381  0.00  0.00    +0.165 C 
ATOM      4  C   LIG    1       -0.252   7.591  -1.307  0.00  0.00    +0.165 C 
ATOM      5  C   LIG    1       -0.819   6.212  -1.557  0.00  0.00    +0.113 C 
ATOM      6  N   LIG    1       -2.075   6.272  -2.301  0.00  0.00    -0.280 N 
ATOM      7  C   LIG    1       -2.102   6.572  -3.608  0.00  0.00    +0.305 C 
ATOM      8  O   LIG    1       -3.100   6.224  -4.223  0.00  0.00    -0.252 OA
ENDROOT
BRANCH   1  10
ATOM      9  C   LIG    1       -2.157   7.848  -6.453  0.00  0.00    +0.024 C 
ATOM     10  C   LIG    1       -1.143   6.941  -5.752  0.00  0.00    +0.106 C 
ENDBRANCH   1  10
BRANCH   3  11
ATOM     11  O   LIG    1        0.140   9.826  -2.097  0.00  0.00    -0.387 OA
ATOM     12  H   LIG    1       -0.056  10.200  -1.227  0.00  0.00    +0.210 HD
ENDBRANCH   3  11
BRANCH   4  13
ATOM     13  O   LIG    1       -0.788   8.073  -0.064  0.00  0.00    -0.387 OA
ATOM     14  H   LIG    1       -0.480   8.957   0.181  0.00  0.00    +0.210 HD
ENDBRANCH   4  13
BRANCH   6  15
ATOM     15  C   LIG    1       -3.336   5.994  -1.602  0.00  0.00    +0.106 C 
ATOM     16  C   LIG    1       -3.948   7.309  -1.113  0.00  0.00    +0.024 C 
ENDBRANCH   6  15
BRANCH   2  17
ATOM     17  C   LIG    1        1.204   7.469  -3.777  0.00  0.00    +0.060 C 
BRANCH  17  18
ATOM     18  C   LIG    1        1.658   7.260  -5.198  0.00  0.00    -0.046 A 
ATOM     19  C   LIG    1        1.543   6.014  -5.785  0.00  0.00    +0.004 A 
ATOM     20  C   LIG    1        1.956   5.824  -7.090  0.00  0.00    +0.000 A 
ATOM     21  C   LIG    1        2.493   6.877  -7.806  0.00  0.00    +0.000 A 
ATOM     22  C   LIG    1        2.613   8.123  -7.218  0.00  0.00    +0.000 A 
ATOM     23  C   LIG    1        2.196   8.314  -5.914  0.00  0.00    +0.004 A 
ENDBRANCH  17  18
ENDBRANCH   2  17
BRANCH   5  24
ATOM     24  C   LIG    1       -1.069   5.522  -0.211  0.00  0.00    +0.060 C 
BRANCH  24  25
ATOM     25  C   LIG    1        0.243   5.324   0.504  0.00  0.00    -0.046 A 
ATOM     26  C   LIG    1        0.650   6.232   1.464  0.00  0.00    +0.004 A 
ATOM     27  C   LIG    1        1.853   6.051   2.120  0.00  0.00    +0.000 A 
ATOM     28  C   LIG    1        2.649   4.962   1.817  0.00  0.00    +0.000 A 
ATOM     29  C   LIG    1        2.244   4.057   0.853  0.00  0.00    +0.000 A 
ATOM     30  C   LIG    1        1.039   4.236   0.200  0.00  0.00    +0.004 A 
ENDBRANCH  24  25
ENDBRANCH   5  24
TORSDOF 8
