REMARK  Name = ZINC06282777
REMARK                            x       y       z     vdW  Elec       q    Type
REMARK                         _______ _______ _______ _____ _____    ______ ____
ROOT
ATOM      1  C   LIG    1        4.772   0.164  -0.042  0.00  0.00    +0.352 C 
ENDROOT
BRANCH   1   2
ATOM      2  C   LIG    1        5.981  -0.737  -0.058  0.00  0.00    +0.277 C 
ATOM      3  N   LIG    1        5.888  -2.018  -0.058  0.00  0.00    -0.273 N 
ATOM      4  H   LIG    1        5.007  -2.546  -0.045  0.00  0.00    +0.304 HD
ATOM      5  C   LIG    1        7.232  -2.618  -0.080  0.00  0.00    +0.276 C 
ATOM      6  C   LIG    1        8.182  -1.403  -0.082  0.00  0.00    +0.268 C 
ATOM      7  N   LIG    1        7.256  -0.257  -0.068  0.00  0.00    -0.234 N 
ATOM      8  H   LIG    1        7.511   0.679  -0.065  0.00  0.00    +0.291 HD
ENDBRANCH   1   2
BRANCH   1   9
ATOM      9  O   LIG    1        3.586  -0.632  -0.035  0.00  0.00    -0.480 OA
BRANCH   9  13
ATOM     10  C   LIG    1       -0.017   1.378   0.010  0.00  0.00    +0.000 A 
ATOM     11  C   LIG    1        1.170   2.088   0.002  0.00  0.00    +0.004 A 
ATOM     12  C   LIG    1        2.377   1.417  -0.013  0.00  0.00    +0.045 A 
ATOM     13  C   LIG    1        2.399   0.030  -0.021  0.00  0.00    +0.121 A 
ATOM     14  C   LIG    1        1.207  -0.680  -0.013  0.00  0.00    +0.045 A 
ATOM     15  C   LIG    1        0.002  -0.004   0.002  0.00  0.00    +0.004 A 
ENDBRANCH   9  13
ENDBRANCH   1   9
TORSDOF 3
