REMARK  Name = ZINC08227211
REMARK                            x       y       z     vdW  Elec       q    Type
REMARK                         _______ _______ _______ _____ _____    ______ ____
ROOT
ATOM      1  C   LIG    1       -3.377   3.243   2.842  0.00  0.00    -0.022 A 
ATOM      2  C   LIG    1       -4.569   3.915   3.031  0.00  0.00    +0.020 A 
ATOM      3  C   LIG    1       -5.309   4.331   1.939  0.00  0.00    +0.018 A 
ATOM      4 BR   LIG    1       -6.944   5.245   2.199  0.00  0.00    -0.050 Br
ATOM      5  C   LIG    1       -4.854   4.081   0.656  0.00  0.00    +0.019 A 
ATOM      6  C   LIG    1       -3.660   3.414   0.464  0.00  0.00    +0.047 A 
ATOM      7  C   LIG    1       -2.917   2.995   1.558  0.00  0.00    +0.122 A 
ENDROOT
BRANCH   1   8
ATOM      8  C   LIG    1       -2.575   2.783   4.032  0.00  0.00    -0.043 C 
BRANCH   8   9
ATOM      9  N   LIG    1       -1.479   3.740   4.276  0.00  0.00    +0.382 N 
ATOM     10  H   LIG    1       -1.876   4.669   4.460  0.00  0.00    -0.085 HD
ATOM     11  H   LIG    1       -0.877   3.784   3.445  0.00  0.00    -0.085 HD
BRANCH   9  13
ATOM     12  C   LIG    1        0.451   4.324   5.665  0.00  0.00    -0.017 C 
ATOM     13  C   LIG    1       -0.675   3.314   5.437  0.00  0.00    -0.086 C 
ENDBRANCH   9  13
ENDBRANCH   8   9
ENDBRANCH   1   8
BRANCH   7  14
ATOM     14  O   LIG    1       -1.741   2.339   1.370  0.00  0.00    -0.487 OA
BRANCH  14  15
ATOM     15  C   LIG    1       -1.332   2.114   0.020  0.00  0.00    +0.264 C 
BRANCH  15  16
ATOM     16  C   LIG    1       -0.017   1.378   0.010  0.00  0.00    -0.010 A 
ATOM     17  C   LIG    1        1.171   2.086   0.002  0.00  0.00    +0.008 A 
ATOM     18  C   LIG    1        2.377   1.412  -0.013  0.00  0.00    +0.020 A 
ATOM     19  C   LIG    1        2.397   0.029  -0.021  0.00  0.00    +0.041 A 
ATOM     20 CL   LIG    1        3.912  -0.818  -0.039  0.00  0.00    -0.084 Cl
ATOM     21  C   LIG    1        1.208  -0.679  -0.013  0.00  0.00    +0.020 A 
ATOM     22  C   LIG    1        0.002  -0.004   0.002  0.00  0.00    +0.008 A 
ENDBRANCH  15  16
ENDBRANCH  14  15
ENDBRANCH   7  14
TORSDOF 6
