REMARK  Name = ZINC06613653
REMARK                            x       y       z     vdW  Elec       q    Type
REMARK                         _______ _______ _______ _____ _____    ______ ____
ROOT
ATOM      1  C   LIG    1       -0.725   1.580   1.269  0.00  0.00    -0.048 C 
ATOM      2  N   LIG    1       -0.006   1.103   2.466  0.00  0.00    +0.382 N 
ATOM      3  H   LIG    1       -0.508   1.410   3.307  0.00  0.00    -0.086 HD
ATOM      4  H   LIG    1        0.037   0.077   2.448  0.00  0.00    -0.086 HD
ATOM      5  C   LIG    1        1.366   1.645   2.493  0.00  0.00    -0.048 C 
ATOM      6  C   LIG    1        2.140   1.153   1.268  0.00  0.00    +0.128 C 
ATOM      7  C   LIG    1        1.423   1.617  -0.003  0.00  0.00    +0.168 C 
ATOM      8  C   LIG    1       -0.013   1.086   0.008  0.00  0.00    +0.128 C 
ENDROOT
BRANCH   6   9
ATOM      9  O   LIG    1        2.205  -0.274   1.286  0.00  0.00    -0.391 OA
ATOM     10  H   LIG    1        2.647  -0.638   2.065  0.00  0.00    +0.210 HD
ENDBRANCH   6   9
BRANCH   7  11
ATOM     11  O   LIG    1        2.111   1.112  -1.150  0.00  0.00    -0.387 OA
ATOM     12  H   LIG    1        3.028   1.408  -1.220  0.00  0.00    +0.210 HD
ENDBRANCH   7  11
BRANCH   8  13
ATOM     13  O   LIG    1       -0.705   1.560  -1.149  0.00  0.00    -0.391 OA
ATOM     14  H   LIG    1       -1.624   1.263  -1.206  0.00  0.00    +0.210 HD
ENDBRANCH   8  13
TORSDOF 3
