REMARK  Name = ZINC06221937
REMARK                            x       y       z     vdW  Elec       q    Type
REMARK                         _______ _______ _______ _____ _____    ______ ____
ROOT
ATOM      1  C   LIG    1       -1.296  -0.730  -0.411  0.00  0.00    +0.080 A 
ATOM      2  C   LIG    1       -1.296  -2.077  -0.639  0.00  0.00    +0.077 A 
ATOM      3  S   LIG    1       -3.042  -2.438  -0.500  0.00  0.00    -0.059 S 
ATOM      4  C   LIG    1       -3.587  -0.771  -0.156  0.00  0.00    +0.178 A 
ATOM      5  N   LIG    1       -2.443  -0.111  -0.170  0.00  0.00    -0.224 NA
ENDROOT
BRANCH   1  12
ATOM      6  C   LIG    1       -0.028   1.406  -0.189  0.00  0.00    +0.011 A 
ATOM      7  C   LIG    1        1.158   2.110  -0.205  0.00  0.00    +0.020 A 
ATOM      8  C   LIG    1        2.351   1.455  -0.458  0.00  0.00    +0.041 A 
ATOM      9 CL   LIG    1        3.841   2.347  -0.477  0.00  0.00    -0.084 Cl
ATOM     10  C   LIG    1        2.361   0.091  -0.695  0.00  0.00    +0.020 A 
ATOM     11  C   LIG    1        1.180  -0.622  -0.682  0.00  0.00    +0.011 A 
ATOM     12  C   LIG    1       -0.024   0.032  -0.428  0.00  0.00    +0.001 A 
ENDBRANCH   1  12
BRANCH   4  13
ATOM     13  N   LIG    1       -4.870  -0.298   0.071  0.00  0.00    -0.215 N 
ATOM     14  H   LIG    1       -5.014   0.645   0.246  0.00  0.00    +0.176 HD
BRANCH  13  15
ATOM     15  N   LIG    1       -5.957  -1.181   0.046  0.00  0.00    -0.190 NA
ATOM     16  C   LIG    1       -7.150  -0.730   0.153  0.00  0.00    +0.037 C 
ATOM     17  C   LIG    1       -7.420   0.759   0.152  0.00  0.00    +0.052 C 
ATOM     18  C   LIG    1       -8.503   1.057  -0.889  0.00  0.00    +0.006 C 
ATOM     19  C   LIG    1       -9.733   0.194  -0.605  0.00  0.00    +0.001 C 
ATOM     20  C   LIG    1       -9.377  -1.285  -0.765  0.00  0.00    +0.006 C 
ATOM     21  C   LIG    1       -8.327  -1.672   0.276  0.00  0.00    +0.052 C 
ENDBRANCH  13  15
ENDBRANCH   4  13
TORSDOF 3
