REMARK  Name = ZINC06525297
REMARK                            x       y       z     vdW  Elec       q    Type
REMARK                         _______ _______ _______ _____ _____    ______ ____
ROOT
ATOM      1  C   LIG    1       -1.264  -0.760   0.010  0.00  0.00    +0.181 A 
ATOM      2  C   LIG    1       -2.436  -0.076   0.123  0.00  0.00    +0.208 A 
ATOM      3  C   LIG    1       -3.663  -0.789   0.132  0.00  0.00    +0.238 A 
ATOM      4  C   LIG    1       -3.595  -2.255   0.016  0.00  0.00    +0.113 A 
ATOM      5  C   LIG    1       -4.757  -3.037   0.015  0.00  0.00    +0.135 A 
ATOM      6  C   LIG    1       -4.654  -4.411  -0.096  0.00  0.00    +0.095 A 
ATOM      7  C   LIG    1       -3.405  -5.012  -0.207  0.00  0.00    +0.166 A 
ATOM      8  C   LIG    1       -2.248  -4.245  -0.207  0.00  0.00    +0.202 A 
ATOM      9  C   LIG    1       -2.333  -2.862  -0.096  0.00  0.00    +0.188 A 
ATOM     10  O   LIG    1       -4.733  -0.209   0.232  0.00  0.00    -0.283 OA
ATOM     11  O   LIG    1       -1.218  -2.099  -0.100  0.00  0.00    -0.447 OA
ENDROOT
BRANCH   1  17
ATOM     12  C   LIG    1        1.067  -0.411   0.810  0.00  0.00    +0.015 A 
ATOM     13  C   LIG    1        2.249   0.297   0.801  0.00  0.00    +0.050 A 
ATOM     14  C   LIG    1        2.386   1.415  -0.009  0.00  0.00    +0.158 A 
ATOM     15  C   LIG    1        1.328   1.827  -0.818  0.00  0.00    +0.159 A 
ATOM     16  C   LIG    1        0.140   1.122  -0.815  0.00  0.00    +0.060 A 
ATOM     17  C   LIG    1        0.002  -0.004   0.002  0.00  0.00    +0.025 A 
BRANCH  14  18
ATOM     18  O   LIG    1        3.553   2.110  -0.014  0.00  0.00    -0.503 OA
ATOM     19  H   LIG    1        4.193   1.800  -0.669  0.00  0.00    +0.292 HD
ENDBRANCH  14  18
BRANCH  15  20
ATOM     20  O   LIG    1        1.466   2.924  -1.611  0.00  0.00    -0.503 OA
ATOM     21  H   LIG    1        1.807   2.730  -2.495  0.00  0.00    +0.292 HD
ENDBRANCH  15  20
ENDBRANCH   1  17
BRANCH   2  22
ATOM     22  O   LIG    1       -2.431   1.281   0.228  0.00  0.00    -0.501 OA
ATOM     23  H   LIG    1       -3.312   1.673   0.304  0.00  0.00    +0.292 HD
ENDBRANCH   2  22
BRANCH   5  24
ATOM     24  O   LIG    1       -5.977  -2.450   0.124  0.00  0.00    -0.506 OA
ATOM     25  H   LIG    1       -6.376  -2.212  -0.724  0.00  0.00    +0.292 HD
ENDBRANCH   5  24
BRANCH   7  26
ATOM     26  O   LIG    1       -3.316  -6.364  -0.315  0.00  0.00    -0.503 OA
ATOM     27  H   LIG    1       -3.336  -6.687  -1.226  0.00  0.00    +0.292 HD
ENDBRANCH   7  26
BRANCH   8  28
ATOM     28  O   LIG    1       -1.031  -4.846  -0.316  0.00  0.00    -0.501 OA
ATOM     29  H   LIG    1       -0.725  -4.952  -1.227  0.00  0.00    +0.292 HD
ENDBRANCH   8  28
TORSDOF 7
