REMARK  Name = ZINC06392199
REMARK                            x       y       z     vdW  Elec       q    Type
REMARK                         _______ _______ _______ _____ _____    ______ ____
ROOT
ATOM      1  N   LIG    1       -1.726  -1.018  -1.368  0.00  0.00    -0.186 NA
ATOM      2  H   LIG    1       -1.326  -0.518  -2.097  0.00  0.00    +0.148 HD
ENDROOT
BRANCH   1   3
ATOM      3  S   LIG    1       -2.898  -2.144  -1.681  0.00  0.00    +0.059 S 
ATOM      4  O   LIG    1       -2.525  -3.324  -0.982  0.00  0.00    -0.153 OA
ATOM      5  O   LIG    1       -3.113  -2.127  -3.086  0.00  0.00    -0.153 OA
BRANCH   3   6
ATOM      6  C   LIG    1       -4.387  -1.568  -0.936  0.00  0.00    +0.105 A 
ATOM      7  C   LIG    1       -4.685  -1.913   0.369  0.00  0.00    +0.030 A 
ATOM      8  C   LIG    1       -5.851  -1.463   0.956  0.00  0.00    +0.024 A 
ATOM      9  C   LIG    1       -6.726  -0.662   0.233  0.00  0.00    +0.025 A 
ATOM     10  C   LIG    1       -6.424  -0.317  -1.079  0.00  0.00    +0.024 A 
ATOM     11  C   LIG    1       -5.253  -0.766  -1.657  0.00  0.00    +0.030 A 
BRANCH   9  12
ATOM     12  N   LIG    1       -7.907  -0.205   0.823  0.00  0.00    -0.358 N 
ATOM     13  H   LIG    1       -8.517   0.354   0.317  0.00  0.00    +0.142 HD
ATOM     14  H   LIG    1       -8.117  -0.447   1.738  0.00  0.00    +0.142 HD
ENDBRANCH   9  12
ENDBRANCH   3   6
ENDBRANCH   1   3
BRANCH   1  15
ATOM     15  C   LIG    1       -1.293  -0.775   0.011  0.00  0.00    +0.141 C 
BRANCH  15  21
ATOM     16  C   LIG    1       -0.017   1.378   0.010  0.00  0.00    +0.007 A 
ATOM     17  C   LIG    1        1.171   2.086   0.002  0.00  0.00    +0.029 A 
ATOM     18  C   LIG    1        2.377   1.411  -0.013  0.00  0.00    +0.105 A 
ATOM     19  C   LIG    1        2.396   0.029  -0.020  0.00  0.00    +0.029 A 
ATOM     20  C   LIG    1        1.208  -0.679  -0.012  0.00  0.00    +0.007 A 
ATOM     21  C   LIG    1        0.002  -0.004   0.002  0.00  0.00    -0.032 A 
BRANCH  18  22
ATOM     22  S   LIG    1        3.891   2.312  -0.024  0.00  0.00    +0.056 S 
ATOM     23  O   LIG    1        3.597   3.593  -0.566  0.00  0.00    -0.153 OA
ATOM     24  O   LIG    1        4.872   1.453  -0.588  0.00  0.00    -0.153 OA
BRANCH  22  25
ATOM     25  N   LIG    1        4.327   2.556   1.555  0.00  0.00    -0.204 NA
ATOM     26  H   LIG    1        5.142   3.039   1.764  0.00  0.00    +0.144 HD
ATOM     27  H   LIG    1        3.768   2.215   2.271  0.00  0.00    +0.144 HD
ENDBRANCH  22  25
ENDBRANCH  18  22
ENDBRANCH  15  21
ENDBRANCH   1  15
TORSDOF 7
