REMARK  Name = ZINC08234345
REMARK                            x       y       z     vdW  Elec       q    Type
REMARK                         _______ _______ _______ _____ _____    ______ ____
ROOT
ATOM      1  C   LIG    1       -0.659  -8.233  -4.862  0.00  0.00    +0.190 C 
ATOM      2  C   LIG    1        0.042  -6.877  -4.979  0.00  0.00    +0.239 C 
ATOM      3  C   LIG    1        1.484  -7.093  -5.448  0.00  0.00    +0.191 C 
ATOM      4  C   LIG    1        1.468  -7.858  -6.775  0.00  0.00    +0.202 C 
ATOM      5  C   LIG    1        0.712  -9.176  -6.588  0.00  0.00    +0.282 C 
ATOM      6  O   LIG    1       -0.611  -8.903  -6.123  0.00  0.00    -0.339 OA
ENDROOT
BRANCH   4   7
ATOM      7  O   LIG    1        2.809  -8.131  -7.187  0.00  0.00    -0.384 OA
ATOM      8  H   LIG    1        2.874  -8.617  -8.020  0.00  0.00    +0.210 HD
ENDBRANCH   4   7
BRANCH   3   9
ATOM      9  O   LIG    1        2.122  -5.828  -5.632  0.00  0.00    -0.385 OA
ATOM     10  H   LIG    1        3.040  -5.890  -5.929  0.00  0.00    +0.210 HD
ENDBRANCH   3   9
BRANCH   2  11
ATOM     11  O   LIG    1        0.046  -6.229  -3.706  0.00  0.00    -0.453 OA
BRANCH  11  12
ATOM     12  C   LIG    1        0.029  -4.880  -3.704  0.00  0.00    +0.332 C 
ATOM     13  O   LIG    1        0.011  -4.271  -4.757  0.00  0.00    -0.246 OA
BRANCH  12  14
ATOM     14  C   LIG    1        0.032  -4.172  -2.476  0.00  0.00    +0.092 C 
ATOM     15  C   LIG    1        0.015  -2.821  -2.475  0.00  0.00    +0.015 C 
BRANCH  15  16
ATOM     16  C   LIG    1        0.018  -2.087  -1.201  0.00  0.00    -0.021 A 
ATOM     17  C   LIG    1        0.038  -2.786   0.011  0.00  0.00    +0.012 A 
ATOM     18  C   LIG    1        0.041  -2.096   1.203  0.00  0.00    +0.050 A 
ATOM     19  C   LIG    1        0.023  -0.708   1.206  0.00  0.00    +0.158 A 
ATOM     20  C   LIG    1        0.002  -0.004   0.002  0.00  0.00    +0.159 A 
ATOM     21  C   LIG    1       -0.006  -0.688  -1.198  0.00  0.00    +0.057 A 
BRANCH  20  22
ATOM     22  O   LIG    1       -0.016   1.356   0.009  0.00  0.00    -0.503 OA
ATOM     23  H   LIG    1        0.862   1.761   0.003  0.00  0.00    +0.292 HD
ENDBRANCH  20  22
BRANCH  19  24
ATOM     24  O   LIG    1        0.025  -0.033   2.385  0.00  0.00    -0.503 OA
ATOM     25  H   LIG    1       -0.857   0.151   2.734  0.00  0.00    +0.292 HD
ENDBRANCH  19  24
ENDBRANCH  15  16
ENDBRANCH  12  14
ENDBRANCH  11  12
ENDBRANCH   2  11
BRANCH   5  26
ATOM     26  O   LIG    1        0.645  -9.869  -7.837  0.00  0.00    -0.348 OA
BRANCH  26  27
ATOM     27  C   LIG    1        0.055 -11.167  -7.750  0.00  0.00    +0.168 C 
BRANCH  27  28
ATOM     28  C   LIG    1        0.035 -11.812  -9.137  0.00  0.00    +0.063 C 
BRANCH  28  29
ATOM     29  C   LIG    1       -0.587 -13.181  -9.046  0.00  0.00    -0.042 A 
ATOM     30  C   LIG    1       -1.951 -13.332  -9.210  0.00  0.00    +0.007 A 
ATOM     31  C   LIG    1       -2.526 -14.586  -9.129  0.00  0.00    +0.049 A 
ATOM     32  C   LIG    1       -1.735 -15.696  -8.881  0.00  0.00    +0.158 A 
ATOM     33  C   LIG    1       -0.362 -15.545  -8.715  0.00  0.00    +0.158 A 
ATOM     34  C   LIG    1        0.209 -14.286  -8.804  0.00  0.00    +0.053 A 
BRANCH  33  35
ATOM     35  O   LIG    1        0.419 -16.632  -8.472  0.00  0.00    -0.503 OA
ATOM     36  H   LIG    1        0.762 -17.056  -9.270  0.00  0.00    +0.292 HD
ENDBRANCH  33  35
BRANCH  32  37
ATOM     37  O   LIG    1       -2.299 -16.931  -8.800  0.00  0.00    -0.503 OA
ATOM     38  H   LIG    1       -2.345 -17.398  -9.646  0.00  0.00    +0.292 HD
ENDBRANCH  32  37
ENDBRANCH  28  29
ENDBRANCH  27  28
ENDBRANCH  26  27
ENDBRANCH   5  26
BRANCH   1  39
ATOM     39  C   LIG    1       -2.118  -8.020  -4.452  0.00  0.00    +0.198 C 
BRANCH  39  40
ATOM     40  O   LIG    1       -2.740  -9.287  -4.229  0.00  0.00    -0.346 OA
BRANCH  40  46
ATOM     41  C   LIG    1       -3.640  -8.446  -0.218  0.00  0.00    +0.041 C 
ATOM     42  C   LIG    1       -3.493  -9.231  -1.523  0.00  0.00    +0.149 C 
ATOM     43  C   LIG    1       -4.063 -10.640  -1.339  0.00  0.00    +0.174 C 
ATOM     44  C   LIG    1       -3.966 -11.398  -2.667  0.00  0.00    +0.179 C 
ATOM     45  C   LIG    1       -4.707 -10.608  -3.750  0.00  0.00    +0.201 C 
ATOM     46  C   LIG    1       -4.112  -9.200  -3.840  0.00  0.00    +0.282 C 
ATOM     47  O   LIG    1       -4.206  -8.562  -2.565  0.00  0.00    -0.343 OA
BRANCH  43  48
ATOM     48  O   LIG    1       -3.313 -11.332  -0.338  0.00  0.00    -0.387 OA
ATOM     49  H   LIG    1       -3.327 -10.904   0.529  0.00  0.00    +0.210 HD
ENDBRANCH  43  48
BRANCH  44  50
ATOM     50  O   LIG    1       -4.562 -12.689  -2.525  0.00  0.00    -0.386 OA
ATOM     51  H   LIG    1       -4.536 -13.225  -3.329  0.00  0.00    +0.210 HD
ENDBRANCH  44  50
BRANCH  45  52
ATOM     52  O   LIG    1       -6.093 -10.520  -3.412  0.00  0.00    -0.384 OA
ATOM     53  H   LIG    1       -6.623 -10.027  -4.053  0.00  0.00    +0.210 HD
ENDBRANCH  45  52
ENDBRANCH  40  46
ENDBRANCH  39  40
ENDBRANCH   1  39
TORSDOF 20
