REMARK  Name = ZINC08022594
REMARK                            x       y       z     vdW  Elec       q    Type
REMARK                         _______ _______ _______ _____ _____    ______ ____
ROOT
ATOM      1  C   LIG    1        0.060  -5.565  -3.475  0.00  0.00    +0.023 A 
ATOM      2  C   LIG    1        1.110  -6.056  -4.187  0.00  0.00    +0.050 A 
ATOM      3  C   LIG    1        2.522  -5.741  -3.764  0.00  0.00    +0.066 C 
ATOM      4  N   LIG    1        0.891  -6.803  -5.243  0.00  0.00    -0.244 NA
ATOM      5  C   LIG    1       -0.340  -7.095  -5.637  0.00  0.00    +0.109 A 
ATOM      6  S   LIG    1       -1.312  -6.242  -4.401  0.00  0.00    -0.071 S 
ENDROOT
BRANCH   5   7
ATOM      7  C   LIG    1       -0.790  -7.911  -6.785  0.00  0.00    +0.010 A 
ATOM      8  C   LIG    1       -2.153  -8.089  -7.027  0.00  0.00    +0.011 A 
ATOM      9  C   LIG    1       -2.567  -8.851  -8.100  0.00  0.00    +0.016 A 
ATOM     10  C   LIG    1       -1.635  -9.440  -8.936  0.00  0.00    +0.090 A 
ATOM     11  C   LIG    1       -0.281  -9.267  -8.702  0.00  0.00    +0.136 A 
ATOM     12  F   LIG    1        0.624  -9.845  -9.523  0.00  0.00    -0.205 F 
ATOM     13  C   LIG    1        0.147  -8.501  -7.634  0.00  0.00    +0.049 A 
BRANCH  10  14
ATOM     14  C   LIG    1       -2.095 -10.272 -10.105  0.00  0.00    +0.420 C 
ATOM     15  F   LIG    1       -1.605 -11.575  -9.972  0.00  0.00    -0.166 F 
ATOM     16  F   LIG    1       -1.615  -9.712 -11.294  0.00  0.00    -0.166 F 
ATOM     17  F   LIG    1       -3.494 -10.300 -10.135  0.00  0.00    -0.166 F 
ENDBRANCH  10  14
ENDBRANCH   5   7
BRANCH   1  18
ATOM     18  C   LIG    1        0.055  -4.696  -2.244  0.00  0.00    +0.118 C 
BRANCH  18  19
ATOM     19  S   LIG    1        0.029  -2.950  -2.736  0.00  0.00    -0.120 S 
BRANCH  19  23
ATOM     20  C   LIG    1       -0.018   1.503   0.010  0.00  0.00    +0.047 C 
ATOM     21  C   LIG    1        0.002  -0.004   0.002  0.00  0.00    -0.008 A 
ATOM     22  C   LIG    1        0.006  -0.688  -1.198  0.00  0.00    +0.021 A 
ATOM     23  C   LIG    1        0.025  -2.077  -1.205  0.00  0.00    +0.009 A 
ATOM     24  C   LIG    1        0.040  -2.776  -0.005  0.00  0.00    +0.018 A 
ATOM     25  C   LIG    1        0.036  -2.091   1.193  0.00  0.00    +0.047 A 
ATOM     26  C   LIG    1        0.023  -0.704   1.199  0.00  0.00    +0.124 A 
BRANCH  26  27
ATOM     27  O   LIG    1        0.025  -0.029   2.380  0.00  0.00    -0.481 OA
BRANCH  27  28
ATOM     28  C   LIG    1        0.047  -0.813   3.575  0.00  0.00    +0.349 C 
BRANCH  28  29
ATOM     29  C   LIG    1        0.047   0.099   4.775  0.00  0.00    +0.343 C 
ATOM     30  O   LIG    1        0.029   1.308   4.621  0.00  0.00    -0.247 OA
BRANCH  29  31
ATOM     31  O   LIG    1        0.064  -0.372   5.899  0.00  0.00    -0.478 OA
ATOM     32  H   LIG    1        0.077  -1.302   6.017  0.00  0.00    +0.295 HD
ENDBRANCH  29  31
ENDBRANCH  28  29
ENDBRANCH  27  28
ENDBRANCH  26  27
ENDBRANCH  19  23
ENDBRANCH  18  19
ENDBRANCH   1  18
TORSDOF 9
