REMARK  Name = ZINC06613627
REMARK                            x       y       z     vdW  Elec       q    Type
REMARK                         _______ _______ _______ _____ _____    ______ ____
ROOT
ATOM      1  C   LIG    1       -0.800   1.527  -1.116  0.00  0.00    -0.048 C 
ATOM      2  N   LIG    1       -0.016   0.997   0.016  0.00  0.00    +0.382 N 
ATOM      3  H   LIG    1       -0.474   1.258   0.897  0.00  0.00    -0.086 HD
ATOM      4  H   LIG    1        0.032  -0.026  -0.055  0.00  0.00    -0.086 HD
ATOM      5  C   LIG    1        1.352   1.550  -0.003  0.00  0.00    -0.048 C 
ATOM      6  C   LIG    1        2.063   1.125  -1.289  0.00  0.00    +0.128 C 
ATOM      7  C   LIG    1        1.277   1.644  -2.496  0.00  0.00    +0.168 C 
ATOM      8  C   LIG    1       -0.153   1.101  -2.436  0.00  0.00    +0.128 C 
ENDROOT
BRANCH   6   9
ATOM      9  O   LIG    1        3.383   1.672  -1.308  0.00  0.00    -0.391 OA
ATOM     10  H   LIG    1        3.937   1.388  -0.569  0.00  0.00    +0.210 HD
ENDBRANCH   6   9
BRANCH   7  11
ATOM     11  O   LIG    1        1.905   1.202  -3.701  0.00  0.00    -0.387 OA
ATOM     12  H   LIG    1        1.459   1.495  -4.508  0.00  0.00    +0.210 HD
ENDBRANCH   7  11
BRANCH   8  13
ATOM     13  O   LIG    1       -0.126  -0.325  -2.516  0.00  0.00    -0.391 OA
ATOM     14  H   LIG    1       -1.000  -0.738  -2.483  0.00  0.00    +0.210 HD
ENDBRANCH   8  13
TORSDOF 3
