REMARK  Name = ZINC06003006
REMARK                            x       y       z     vdW  Elec       q    Type
REMARK                         _______ _______ _______ _____ _____    ______ ____
ROOT
ATOM      1  N   LIG    1        1.651  -4.999  -0.034  0.00  0.00    -0.076 NA
ATOM      2  C   LIG    1        1.955  -6.264  -0.043  0.00  0.00    +0.304 C 
ENDROOT
BRANCH   1   3
ATOM      3  S   LIG    1        0.063  -4.530  -0.023  0.00  0.00    +0.103 S 
ATOM      4  O   LIG    1       -0.490  -4.937  -1.267  0.00  0.00    -0.146 OA
ATOM      5  O   LIG    1       -0.476  -4.950   1.223  0.00  0.00    -0.146 OA
BRANCH   3  10
ATOM      6  C   LIG    1       -0.018   1.503   0.010  0.00  0.00    +0.044 C 
ATOM      7  C   LIG    1        0.002  -0.004   0.002  0.00  0.00    -0.050 A 
ATOM      8  C   LIG    1        0.006  -0.689  -1.199  0.00  0.00    +0.005 A 
ATOM      9  C   LIG    1        0.025  -2.071  -1.206  0.00  0.00    +0.029 A 
ATOM     10  C   LIG    1        0.040  -2.768  -0.013  0.00  0.00    +0.113 A 
ATOM     11  C   LIG    1        0.037  -2.084   1.188  0.00  0.00    +0.029 A 
ATOM     12  C   LIG    1        0.023  -0.702   1.195  0.00  0.00    +0.005 A 
ENDBRANCH   3  10
ENDBRANCH   1   3
BRANCH   2  13
ATOM     13  N   LIG    1        3.275  -6.654  -0.052  0.00  0.00    -0.246 N 
ATOM     14  H   LIG    1        3.978  -5.986  -0.052  0.00  0.00    +0.159 HD
BRANCH  13  15
ATOM     15  C   LIG    1        3.600  -8.005  -0.061  0.00  0.00    +0.191 A 
ATOM     16  N   LIG    1        2.813  -9.072  -0.069  0.00  0.00    -0.124 NA
ATOM     17  N   LIG    1        3.281 -10.243  -0.077  0.00  0.00    -0.119 NA
ATOM     18  C   LIG    1        4.577 -10.482  -0.078  0.00  0.00    +0.256 A 
ATOM     19  S   LIG    1        5.203  -8.804  -0.075  0.00  0.00    -0.010 S 
BRANCH  18  20
ATOM     20  S   LIG    1        5.447 -12.014  -0.088  0.00  0.00    +0.081 S 
ATOM     21  O   LIG    1        6.603 -11.831   0.717  0.00  0.00    -0.151 OA
ATOM     22  O   LIG    1        5.521 -12.430  -1.445  0.00  0.00    -0.151 OA
BRANCH  20  23
ATOM     23  N   LIG    1        4.496 -13.122   0.694  0.00  0.00    -0.202 NA
ATOM     24  H   LIG    1        3.611 -13.160   0.188  0.00  0.00    +0.144 HD
ATOM     25  H   LIG    1        4.801 -14.037   0.796  0.00  0.00    +0.144 HD
ENDBRANCH  20  23
ENDBRANCH  18  20
ENDBRANCH  13  15
ENDBRANCH   2  13
BRANCH   2  26
ATOM     26  O   LIG    1        0.976  -7.195  -0.042  0.00  0.00    -0.480 OA
ATOM     27  H   LIG    1        0.078  -6.929  -0.036  0.00  0.00    +0.295 HD
ENDBRANCH   2  26
TORSDOF 7
