REMARK  Name = ZINC06501434
REMARK                            x       y       z     vdW  Elec       q    Type
REMARK                         _______ _______ _______ _____ _____    ______ ____
ROOT
ATOM      1  N   LIG    1        1.333   1.312   2.792  0.00  0.00    -0.285 N 
ATOM      2  C   LIG    1        2.232   0.423   3.257  0.00  0.00    +0.264 C 
ATOM      3  O   LIG    1        2.082  -0.765   3.042  0.00  0.00    -0.268 OA
ENDROOT
BRANCH   2   4
ATOM      4  C   LIG    1        3.392   0.888   4.024  0.00  0.00    +0.102 A 
ATOM      5  C   LIG    1        4.290   0.088   4.702  0.00  0.00    +0.033 A 
ATOM      6  C   LIG    1        5.234   0.927   5.291  0.00  0.00    +0.028 A 
ATOM      7  C   LIG    1        4.901   2.224   4.967  0.00  0.00    +0.047 A 
ATOM      8  N   LIG    1        3.781   2.198   4.189  0.00  0.00    -0.351 N 
ATOM      9  H   LIG    1        3.332   2.973   3.817  0.00  0.00    +0.166 HD
BRANCH   7  10
ATOM     10  C   LIG    1        5.636   3.437   5.385  0.00  0.00    -0.002 A 
ATOM     11  C   LIG    1        5.155   4.701   5.042  0.00  0.00    +0.010 A 
ATOM     12  C   LIG    1        5.844   5.829   5.439  0.00  0.00    +0.001 A 
ATOM     13  C   LIG    1        7.014   5.708   6.167  0.00  0.00    +0.000 A 
ATOM     14  C   LIG    1        7.499   4.457   6.506  0.00  0.00    +0.001 A 
ATOM     15  C   LIG    1        6.817   3.322   6.120  0.00  0.00    +0.010 A 
ENDBRANCH   7  10
ENDBRANCH   2   4
BRANCH   1  16
ATOM     16  C   LIG    1        0.266   0.870   1.890  0.00  0.00    +0.162 C 
BRANCH  16  17
ATOM     17  C   LIG    1       -1.074   1.170   2.511  0.00  0.00    +0.234 C 
ATOM     18  N   LIG    1       -2.207   0.796   1.884  0.00  0.00    -0.311 N 
ATOM     19  H   LIG    1       -2.160   0.333   1.033  0.00  0.00    +0.149 HD
ATOM     20  O   LIG    1       -1.133   1.749   3.576  0.00  0.00    -0.274 OA
BRANCH  18  21
ATOM     21  C   LIG    1       -3.509   1.088   2.489  0.00  0.00    +0.073 C 
ATOM     22  C   LIG    1       -3.869  -0.017   3.484  0.00  0.00    +0.022 C 
ATOM     23  C   LIG    1       -5.229   0.288   4.115  0.00  0.00    +0.002 C 
ATOM     24  C   LIG    1       -6.295   0.355   3.020  0.00  0.00    +0.000 C 
ATOM     25  C   LIG    1       -5.936   1.460   2.025  0.00  0.00    +0.002 C 
ATOM     26  C   LIG    1       -4.576   1.155   1.394  0.00  0.00    +0.022 C 
ENDBRANCH  18  21
ENDBRANCH  16  17
BRANCH  16  27
ATOM     27  C   LIG    1        0.386   1.610   0.556  0.00  0.00    +0.032 C 
BRANCH  27  29
ATOM     28  C   LIG    1        1.812   1.947  -1.468  0.00  0.00    +0.004 C 
ATOM     29  C   LIG    1        1.692   1.208  -0.134  0.00  0.00    -0.001 C 
ENDBRANCH  27  29
ENDBRANCH  16  27
ENDBRANCH   1  16
BRANCH   1  30
ATOM     30  C   LIG    1        1.421   2.720   3.187  0.00  0.00    +0.107 C 
BRANCH  30  31
ATOM     31  C   LIG    1        2.289   3.478   2.180  0.00  0.00    +0.000 C 
BRANCH  31  32
ATOM     32  C   LIG    1        2.420   4.938   2.619  0.00  0.00    -0.077 C 
BRANCH  32  33
ATOM     33  N   LIG    1        3.173   5.680   1.586  0.00  0.00    +0.379 N 
ATOM     34  H   LIG    1        4.045   5.178   1.384  0.00  0.00    -0.082 HD
BRANCH  33  35
ATOM     35  C   LIG    1        3.501   7.036   2.076  0.00  0.00    -0.082 C 
ATOM     36  C   LIG    1        4.415   7.722   1.058  0.00  0.00    -0.017 C 
ENDBRANCH  33  35
BRANCH  33  37
ATOM     37  C   LIG    1        2.373   5.772   0.346  0.00  0.00    -0.082 C 
ATOM     38  C   LIG    1        1.102   6.588   0.586  0.00  0.00    -0.017 C 
ENDBRANCH  33  37
ENDBRANCH  32  33
ENDBRANCH  31  32
ENDBRANCH  30  31
ENDBRANCH   1  30
TORSDOF 13
