REMARK  Name = ZINC05921519
REMARK                            x       y       z     vdW  Elec       q    Type
REMARK                         _______ _______ _______ _____ _____    ______ ____
ROOT
ATOM      1  C   LIG    1        2.513   8.108   0.022  0.00  0.00    +0.051 C 
ATOM      2  C   LIG    1        1.195   7.377   0.031  0.00  0.00    +0.034 A 
ATOM      3  C   LIG    1        0.009   8.092   0.047  0.00  0.00    +0.123 A 
ATOM      4  C   LIG    1       -1.213   7.428   0.057  0.00  0.00    +0.046 A 
ATOM      5  C   LIG    1       -1.251   6.051   0.050  0.00  0.00    +0.016 A 
ATOM      6  C   LIG    1       -0.062   5.323   0.033  0.00  0.00    +0.026 A 
ATOM      7  C   LIG    1       -0.081   3.848   0.024  0.00  0.00    -0.000 A 
ATOM      8  C   LIG    1       -1.268   3.126   0.031  0.00  0.00    +0.009 A 
ATOM      9  C   LIG    1       -1.227   1.746   0.017  0.00  0.00    +0.001 A 
ATOM     10  C   LIG    1       -0.013   1.076   0.008  0.00  0.00    +0.001 A 
ATOM     11  C   LIG    1        1.176   1.775   0.000  0.00  0.00    +0.015 A 
ATOM     12  C   LIG    1        1.155   3.168   0.008  0.00  0.00    +0.067 A 
ATOM     13  C   LIG    1        2.392   3.961   0.001  0.00  0.00    +0.345 A 
ATOM     14  O   LIG    1        3.471   3.400  -0.012  0.00  0.00    -0.245 OA
ATOM     15  O   LIG    1        2.337   5.302   0.009  0.00  0.00    -0.421 OA
ATOM     16  C   LIG    1        1.173   5.989   0.024  0.00  0.00    +0.146 A 
ENDROOT
BRANCH   3  17
ATOM     17  O   LIG    1        0.039   9.450   0.054  0.00  0.00    -0.506 OA
ATOM     18  H   LIG    1       -0.901  10.021   0.067  0.00  0.00    +0.292 HD
ENDBRANCH   3  17
TORSDOF 1
