REMARK  Name = ZINC06824769
REMARK                            x       y       z     vdW  Elec       q    Type
REMARK                         _______ _______ _______ _____ _____    ______ ____
ROOT
ATOM      1  C   LIG    1        1.571   0.981   2.346  0.00  0.00    +0.014 C 
ATOM      2  C   LIG    1        2.090   0.846   0.906  0.00  0.00    +0.000 C 
ATOM      3  C   LIG    1        3.596   0.909   0.915  0.00  0.00    +0.010 C 
ATOM      4  C   LIG    1        4.081   2.289   0.432  0.00  0.00    +0.005 C 
ATOM      5  C   LIG    1        3.207   3.359   1.064  0.00  0.00    -0.000 C 
ATOM      6  C   LIG    1        1.813   3.321   0.410  0.00  0.00    -0.003 C 
ATOM      7  C   LIG    1        0.858   4.052   1.338  0.00  0.00    +0.008 C 
ATOM      8  C   LIG    1        1.250   5.539   1.319  0.00  0.00    +0.031 C 
ATOM      9  C   LIG    1        2.738   5.711   1.553  0.00  0.00    -0.063 C 
ATOM     10  C   LIG    1        3.113   6.714   2.350  0.00  0.00    +0.045 C 
ATOM     11  C   LIG    1        4.528   6.994   2.599  0.00  0.00    +0.156 C 
ATOM     12  C   LIG    1        5.545   6.345   1.684  0.00  0.00    +0.079 C 
ATOM     13  C   LIG    1        5.128   4.893   1.468  0.00  0.00    +0.016 C 
ATOM     14  O   LIG    1        4.873   7.725   3.508  0.00  0.00    -0.293 OA
ATOM     15  C   LIG    1        3.727   4.787   0.891  0.00  0.00    +0.019 C 
ATOM     16  C   LIG    1        1.455  -0.415   0.323  0.00  0.00    +0.075 C 
ATOM     17  C   LIG    1        2.151  -0.906  -0.956  0.00  0.00    +0.038 C 
ATOM     18  C   LIG    1        1.642  -2.377  -1.004  0.00  0.00    +0.031 C 
ATOM     19  C   LIG    1        1.570  -2.742   0.496  0.00  0.00    +0.160 C 
ATOM     20  O   LIG    1        1.480  -1.512   1.235  0.00  0.00    -0.373 OA
ATOM     21  C   LIG    1        0.002  -0.004   0.002  0.00  0.00    +0.036 C 
ATOM     22  C   LIG    1       -0.019   1.550   0.011  0.00  0.00    +0.007 C 
ATOM     23  C   LIG    1        1.471   1.930  -0.002  0.00  0.00    +0.001 C 
ENDROOT
TORSDOF 0
