REMARK  Name = ZINC08035017
REMARK                            x       y       z     vdW  Elec       q    Type
REMARK                         _______ _______ _______ _____ _____    ______ ____
ROOT
ATOM      1  C   LIG    1       -1.250   8.748   4.131  0.00  0.00    +0.000 C 
ENDROOT
BRANCH   1   2
ATOM      2  C   LIG    1       -1.892   9.193   5.447  0.00  0.00    +0.000 C 
BRANCH   2   3
ATOM      3  C   LIG    1       -2.033  10.716   5.457  0.00  0.00    +0.000 C 
BRANCH   3   4
ATOM      4  C   LIG    1       -2.675  11.160   6.773  0.00  0.00    -0.000 C 
BRANCH   4   5
ATOM      5  C   LIG    1       -2.817  12.684   6.782  0.00  0.00    -0.000 C 
BRANCH   5   6
ATOM      6  C   LIG    1       -3.458  13.128   8.098  0.00  0.00    -0.000 C 
BRANCH   6   7
ATOM      7  C   LIG    1       -3.600  14.652   8.108  0.00  0.00    -0.000 C 
BRANCH   7   8
ATOM      8  C   LIG    1       -4.241  15.096   9.424  0.00  0.00    -0.000 C 
BRANCH   8   9
ATOM      9  C   LIG    1       -4.383  16.619   9.433  0.00  0.00    -0.000 C 
BRANCH   9  10
ATOM     10  C   LIG    1       -5.024  17.064  10.749  0.00  0.00    -0.000 C 
BRANCH  10  12
ATOM     11  C   LIG    1       -5.808  19.032  12.075  0.00  0.00    +0.004 C 
ATOM     12  C   LIG    1       -5.166  18.587  10.759  0.00  0.00    -0.003 C 
ENDBRANCH  10  12
ENDBRANCH   9  10
ENDBRANCH   8   9
ENDBRANCH   7   8
ENDBRANCH   6   7
ENDBRANCH   5   6
ENDBRANCH   4   5
ENDBRANCH   3   4
ENDBRANCH   2   3
ENDBRANCH   1   2
BRANCH   1  13
ATOM     13  C   LIG    1       -1.109   7.225   4.122  0.00  0.00    +0.000 C 
BRANCH  13  14
ATOM     14  C   LIG    1       -0.467   6.780   2.806  0.00  0.00    +0.009 C 
BRANCH  14  15
ATOM     15  C   LIG    1       -0.326   5.257   2.796  0.00  0.00    +0.096 C 
BRANCH  15  16
ATOM     16  C   LIG    1        0.306   4.819   1.500  0.00  0.00    +0.213 C 
ATOM     17  N   LIG    1        0.530   3.511   1.268  0.00  0.00    -0.313 N 
ATOM     18  H   LIG    1        0.285   2.851   1.935  0.00  0.00    +0.149 HD
ATOM     19  O   LIG    1        0.614   5.644   0.666  0.00  0.00    -0.276 OA
BRANCH  17  20
ATOM     20  C   LIG    1        1.145   3.085   0.008  0.00  0.00    +0.132 C 
BRANCH  20  21
ATOM     21  C   LIG    1        1.286   1.562  -0.002  0.00  0.00    +0.174 C 
BRANCH  21  22
ATOM     22  O   LIG    1       -0.011   0.963   0.007  0.00  0.00    -0.393 OA
ATOM     23  H   LIG    1        0.002  -0.004   0.002  0.00  0.00    +0.209 HD
ENDBRANCH  21  22
ENDBRANCH  20  21
ENDBRANCH  17  20
ENDBRANCH  15  16
ENDBRANCH  14  15
ENDBRANCH  13  14
ENDBRANCH   1  13
TORSDOF 17
