REMARK  Name = ZINC05999108
REMARK                            x       y       z     vdW  Elec       q    Type
REMARK                         _______ _______ _______ _____ _____    ______ ____
ROOT
ATOM      1  C   LIG    1        1.133  -0.378  -0.981  0.00  0.00    +0.025 C 
ATOM      2  C   LIG    1        0.002  -0.004   0.002  0.00  0.00    +0.164 C 
ATOM      3  O   LIG    1       -0.018   1.440   0.010  0.00  0.00    -0.379 OA
ATOM      4  C   LIG    1        1.370   1.839  -0.001  0.00  0.00    +0.164 C 
ATOM      5  C   LIG    1        2.054   0.863  -0.983  0.00  0.00    +0.025 C 
ENDROOT
BRANCH   1   6
ATOM      6  C   LIG    1        1.891  -1.611  -0.483  0.00  0.00    +0.041 C 
BRANCH   6   9
ATOM      7  C   LIG    1       -0.632  -4.224   0.555  0.00  0.00    +0.162 A 
ATOM      8  C   LIG    1        0.212  -3.125   0.588  0.00  0.00    +0.053 A 
ATOM      9  C   LIG    1        0.978  -2.809  -0.518  0.00  0.00    -0.043 A 
ATOM     10  C   LIG    1        0.914  -3.594  -1.655  0.00  0.00    +0.007 A 
ATOM     11  C   LIG    1        0.078  -4.694  -1.693  0.00  0.00    +0.049 A 
ATOM     12  C   LIG    1       -0.697  -5.013  -0.590  0.00  0.00    +0.158 A 
BRANCH   7  14
ATOM     13  C   LIG    1       -1.274  -3.678   2.779  0.00  0.00    +0.277 C 
ATOM     14  O   LIG    1       -1.392  -4.533   1.640  0.00  0.00    -0.491 OA
ENDBRANCH   7  14
BRANCH  12  15
ATOM     15  O   LIG    1       -1.520  -6.096  -0.625  0.00  0.00    -0.503 OA
ATOM     16  H   LIG    1       -1.105  -6.915  -0.323  0.00  0.00    +0.292 HD
ENDBRANCH  12  15
ENDBRANCH   6   9
ENDBRANCH   1   6
BRANCH   5  17
ATOM     17  C   LIG    1        2.127   1.474  -2.384  0.00  0.00    +0.041 C 
BRANCH  17  18
ATOM     18  C   LIG    1        3.124   2.604  -2.388  0.00  0.00    -0.043 A 
ATOM     19  C   LIG    1        4.451   2.353  -2.680  0.00  0.00    +0.007 A 
ATOM     20  C   LIG    1        5.369   3.386  -2.684  0.00  0.00    +0.049 A 
ATOM     21  C   LIG    1        4.959   4.678  -2.396  0.00  0.00    +0.158 A 
ATOM     22  C   LIG    1        3.623   4.931  -2.102  0.00  0.00    +0.162 A 
ATOM     23  C   LIG    1        2.707   3.892  -2.104  0.00  0.00    +0.053 A 
BRANCH  21  24
ATOM     24  O   LIG    1        5.861   5.696  -2.399  0.00  0.00    -0.503 OA
ATOM     25  H   LIG    1        5.960   6.130  -3.257  0.00  0.00    +0.292 HD
ENDBRANCH  21  24
BRANCH  22  26
ATOM     26  O   LIG    1        3.216   6.198  -1.817  0.00  0.00    -0.491 OA
ATOM     27  C   LIG    1        1.830   6.383  -1.525  0.00  0.00    +0.277 C 
ENDBRANCH  22  26
ENDBRANCH  17  18
ENDBRANCH   5  17
TORSDOF 8
