REMARK  Name = ZINC08581223
REMARK                            x       y       z     vdW  Elec       q    Type
REMARK                         _______ _______ _______ _____ _____    ______ ____
ROOT
ATOM      1  C   LIG    1        3.066  -2.140  -0.039  0.00  0.00    +0.155 C 
ATOM      2  N   LIG    1        1.662  -1.722  -0.024  0.00  0.00    -0.280 N 
ATOM      3  C   LIG    1        1.341  -0.375  -0.013  0.00  0.00    +0.168 A 
ATOM      4  C   LIG    1        0.002  -0.004   0.002  0.00  0.00    +0.149 A 
ATOM      5  N   LIG    1       -0.017   1.376   0.010  0.00  0.00    -0.336 N 
ATOM      6  C   LIG    1        1.266   1.788  -0.000  0.00  0.00    +0.113 A 
ATOM      7  H   LIG    1       -0.977   1.913   0.022  0.00  0.00    +0.167 HD
ATOM      8  C   LIG    1       -0.990  -1.009   0.006  0.00  0.00    +0.282 A 
ATOM      9  N   LIG    1       -0.614  -2.305  -0.005  0.00  0.00    -0.262 N 
ATOM     10  C   LIG    1       -1.639  -3.352  -0.002  0.00  0.00    +0.157 C 
ATOM     11  O   LIG    1       -2.170  -0.709   0.019  0.00  0.00    -0.265 OA
ATOM     12  N   LIG    1        2.063   0.749  -0.014  0.00  0.00    -0.214 NA
ATOM     13  C   LIG    1        0.685  -2.649  -0.019  0.00  0.00    +0.333 A 
ATOM     14  O   LIG    1        0.986  -3.827  -0.028  0.00  0.00    -0.246 OA
ENDROOT
BRANCH   6  15
ATOM     15  C   LIG    1        1.716   3.226   0.003  0.00  0.00    +0.055 C 
ATOM     16  C   LIG    1        0.749   4.061   0.844  0.00  0.00    +0.011 C 
ATOM     17  C   LIG    1        1.206   5.521   0.848  0.00  0.00    +0.001 C 
ATOM     18  C   LIG    1        1.224   6.053  -0.587  0.00  0.00    +0.000 C 
ATOM     19  C   LIG    1        2.192   5.218  -1.428  0.00  0.00    +0.001 C 
ATOM     20  C   LIG    1        1.735   3.758  -1.431  0.00  0.00    +0.011 C 
ENDBRANCH   6  15
TORSDOF 1
