REMARK  Name = ZINC06637582
REMARK                            x       y       z     vdW  Elec       q    Type
REMARK                         _______ _______ _______ _____ _____    ______ ____
ROOT
ATOM      1  C   LIG    1       -3.518   2.092  -1.152  0.00  0.00    -0.079 C 
ENDROOT
BRANCH   1   3
ATOM      2  C   LIG    1       -4.725   0.235  -2.130  0.00  0.00    -0.097 C 
ATOM      3  N   LIG    1       -4.322   1.646  -2.308  0.00  0.00    +0.376 N 
ATOM      4  H   LIG    1       -3.755   1.726  -3.160  0.00  0.00    -0.083 HD
ATOM      5  C   LIG    1       -5.521   2.499  -2.449  0.00  0.00    -0.097 C 
ENDBRANCH   1   3
BRANCH   1   6
ATOM      6  C   LIG    1       -2.182   1.345  -1.162  0.00  0.00    -0.015 C 
BRANCH   6   7
ATOM      7  C   LIG    1       -1.328   1.812   0.018  0.00  0.00    +0.025 C 
BRANCH   7   8
ATOM      8  C   LIG    1       -0.013   1.076   0.008  0.00  0.00    -0.035 C 
ATOM      9  C   LIG    1        1.113   1.746   0.001  0.00  0.00    +0.004 C 
ENDBRANCH   7   8
ENDBRANCH   6   7
ENDBRANCH   1   6
TORSDOF 4
