REMARK  Name = ZINC05974922
REMARK                            x       y       z     vdW  Elec       q    Type
REMARK                         _______ _______ _______ _____ _____    ______ ____
ROOT
ATOM      1  C   LIG    1        0.679  -3.264  -0.022  0.00  0.00    +0.091 A 
ATOM      2  C   LIG    1        1.045  -4.572  -0.028  0.00  0.00    +0.112 A 
ATOM      3  N   LIG    1       -0.112  -5.311  -0.022  0.00  0.00    -0.344 N 
ATOM      4  C   LIG    1       -1.153  -4.428  -0.012  0.00  0.00    +0.141 A 
ATOM      5  H   LIG    1       -0.178  -6.279  -0.024  0.00  0.00    +0.167 HD
ATOM      6  N   LIG    1       -0.667  -3.206  -0.007  0.00  0.00    -0.228 NA
ENDROOT
BRANCH   4   7
ATOM      7  C   LIG    1       -2.586  -4.785  -0.003  0.00  0.00    +0.042 A 
ATOM      8  C   LIG    1       -3.110  -6.038   0.003  0.00  0.00    +0.095 A 
ATOM      9  N   LIG    1       -4.471  -5.967   0.012  0.00  0.00    -0.360 N 
ATOM     10  C   LIG    1       -4.880  -4.651   0.011  0.00  0.00    +0.048 A 
ATOM     11  C   LIG    1       -6.131  -4.043   0.018  0.00  0.00    +0.041 A 
ATOM     12  C   LIG    1       -6.227  -2.667   0.029  0.00  0.00    +0.020 A 
ATOM     13 BR   LIG    1       -7.931  -1.847   0.044  0.00  0.00    -0.050 Br
ATOM     14  C   LIG    1       -5.085  -1.879   0.022  0.00  0.00    +0.016 A 
ATOM     15  C   LIG    1       -3.837  -2.462   0.011  0.00  0.00    +0.012 A 
ATOM     16  H   LIG    1       -5.066  -6.733   0.018  0.00  0.00    +0.165 HD
ATOM     17  C   LIG    1       -3.725  -3.851   0.008  0.00  0.00    +0.010 A 
ENDBRANCH   4   7
BRANCH   1  23
ATOM     18  C   LIG    1       -0.017   1.363   0.009  0.00  0.00    +0.001 A 
ATOM     19  C   LIG    1        1.170   2.083   0.002  0.00  0.00    +0.002 A 
ATOM     20  C   LIG    1        2.385   1.435  -0.013  0.00  0.00    +0.026 A 
ATOM     21  C   LIG    1        2.426   0.043  -0.021  0.00  0.00    +0.047 A 
ATOM     22  C   LIG    1        1.222  -0.680  -0.013  0.00  0.00    +0.009 A 
ATOM     23  C   LIG    1        1.601  -2.102  -0.025  0.00  0.00    +0.027 A 
ATOM     24  C   LIG    1        2.954  -2.144  -0.040  0.00  0.00    +0.093 A 
ATOM     25  N   LIG    1        3.456  -0.871  -0.037  0.00  0.00    -0.360 N 
ATOM     26  H   LIG    1        4.399  -0.646  -0.046  0.00  0.00    +0.165 HD
ATOM     27  C   LIG    1        0.002  -0.004   0.002  0.00  0.00    +0.010 A 
ENDBRANCH   1  23
TORSDOF 2
