REMARK  Name = ZINC06471957
REMARK                            x       y       z     vdW  Elec       q    Type
REMARK                         _______ _______ _______ _____ _____    ______ ____
ROOT
ATOM      1  C   LIG    1        1.184   1.790   0.000  0.00  0.00    -0.018 A 
ATOM      2  C   LIG    1       -0.013   1.076   0.008  0.00  0.00    +0.009 A 
ATOM      3  C   LIG    1       -1.216   1.751   0.017  0.00  0.00    +0.013 A 
ATOM      4  C   LIG    1       -1.236   3.134   0.031  0.00  0.00    +0.055 A 
ATOM      5  C   LIG    1       -0.052   3.849   0.023  0.00  0.00    +0.013 A 
ATOM      6  C   LIG    1        1.158   3.184   0.008  0.00  0.00    +0.009 A 
ENDROOT
BRANCH   1   9
ATOM      7  C   LIG    1        4.881   1.123  -0.039  0.00  0.00    +0.019 A 
ATOM      8  C   LIG    1        3.676   1.790  -0.024  0.00  0.00    +0.010 A 
ATOM      9  C   LIG    1        2.481   1.071  -0.016  0.00  0.00    -0.018 A 
ATOM     10  C   LIG    1        2.503  -0.324  -0.019  0.00  0.00    +0.010 A 
ATOM     11  C   LIG    1        3.706  -0.993  -0.039  0.00  0.00    +0.019 A 
ATOM     12  C   LIG    1        4.905  -0.275  -0.046  0.00  0.00    +0.052 A 
BRANCH  12  13
ATOM     13  C   LIG    1        6.157  -0.969  -0.061  0.00  0.00    +0.099 C 
ATOM     14  N   LIG    1        7.150  -1.521  -0.073  0.00  0.00    -0.191 NA
ENDBRANCH  12  13
ENDBRANCH   1   9
BRANCH   4  15
ATOM     15  C   LIG    1       -2.554   3.865   0.047  0.00  0.00    +0.417 C 
ATOM     16  F   LIG    1       -2.401   5.087   0.711  0.00  0.00    -0.166 F 
ATOM     17  F   LIG    1       -3.510   3.089   0.711  0.00  0.00    -0.166 F 
ATOM     18  F   LIG    1       -2.974   4.098  -1.267  0.00  0.00    -0.166 F 
ENDBRANCH   4  15
TORSDOF 3
