REMARK  Name = ZINC06039278
REMARK                            x       y       z     vdW  Elec       q    Type
REMARK                         _______ _______ _______ _____ _____    ______ ____
ROOT
ATOM      1  C   LIG    1       -2.496  -4.125   0.094  0.00  0.00    +0.033 A 
ATOM      2  C   LIG    1       -1.260  -4.752   0.180  0.00  0.00    +0.025 A 
ATOM      3  C   LIG    1       -1.190  -6.129   0.261  0.00  0.00    +0.030 A 
ATOM      4  C   LIG    1       -2.349  -6.883   0.256  0.00  0.00    +0.105 A 
ATOM      5  C   LIG    1       -3.581  -6.262   0.170  0.00  0.00    +0.030 A 
ATOM      6  C   LIG    1       -3.658  -4.885   0.095  0.00  0.00    +0.025 A 
ENDROOT
BRANCH   1   8
ATOM      7  C   LIG    1       -3.584  -2.073   0.610  0.00  0.00    +0.217 C 
ATOM      8  N   LIG    1       -2.571  -2.730   0.012  0.00  0.00    -0.285 N 
ATOM      9  H   LIG    1       -1.893  -2.236  -0.476  0.00  0.00    +0.155 HD
ATOM     10  O   LIG    1       -4.476  -2.695   1.148  0.00  0.00    -0.275 OA
BRANCH   7  11
ATOM     11  C   LIG    1       -3.609  -0.566   0.611  0.00  0.00    +0.096 C 
BRANCH  11  13
ATOM     12  C   LIG    1       -4.881   1.453   1.351  0.00  0.00    +0.004 C 
ATOM     13  C   LIG    1       -4.856  -0.077   1.350  0.00  0.00    +0.006 C 
ENDBRANCH  11  13
ENDBRANCH   7  11
ENDBRANCH   1   8
BRANCH   4  14
ATOM     14  S   LIG    1       -2.255  -8.640   0.360  0.00  0.00    +0.056 S 
ATOM     15  O   LIG    1       -0.968  -9.006  -0.119  0.00  0.00    -0.153 OA
ATOM     16  O   LIG    1       -3.453  -9.145  -0.213  0.00  0.00    -0.153 OA
BRANCH  14  17
ATOM     17  N   LIG    1       -2.293  -9.038   1.966  0.00  0.00    -0.204 NA
ATOM     18  H   LIG    1       -1.931  -8.427   2.627  0.00  0.00    +0.144 HD
ATOM     19  H   LIG    1       -2.678  -9.883   2.247  0.00  0.00    +0.144 HD
ENDBRANCH  14  17
ENDBRANCH   4  14
TORSDOF 5
