REMARK  Name = ZINC07653962
REMARK                            x       y       z     vdW  Elec       q    Type
REMARK                         _______ _______ _______ _____ _____    ______ ____
ROOT
ATOM      1  N   LIG    1        6.011  -1.980  -0.762  0.00  0.00    +0.383 N 
ATOM      2  H   LIG    1        6.034  -1.004  -0.505  0.00  0.00    -0.086 HD
ATOM      3  H   LIG    1        5.862  -2.063  -1.756  0.00  0.00    -0.086 HD
ENDROOT
BRANCH   1   4
ATOM      4  C   LIG    1        4.918  -2.649  -0.044  0.00  0.00    -0.034 C 
BRANCH   4  12
ATOM      5  C   LIG    1       -0.017   1.378   0.010  0.00  0.00    +0.004 A 
ATOM      6  C   LIG    1        1.170   2.088   0.002  0.00  0.00    +0.004 A 
ATOM      7  C   LIG    1        2.378   1.418  -0.012  0.00  0.00    +0.049 A 
ATOM      8  C   LIG    1        2.404   0.031  -0.019  0.00  0.00    +0.162 A 
ATOM      9  C   LIG    1        1.212  -0.683  -0.014  0.00  0.00    +0.162 A 
ATOM     10  O   LIG    1        1.214  -2.043  -0.029  0.00  0.00    -0.485 OA
ATOM     11  C   LIG    1        2.441  -2.689   0.331  0.00  0.00    +0.271 C 
ATOM     12  C   LIG    1        3.587  -1.993  -0.416  0.00  0.00    +0.194 C 
ATOM     13  O   LIG    1        3.602  -0.615  -0.029  0.00  0.00    -0.484 OA
ATOM     14  C   LIG    1        0.002  -0.004   0.002  0.00  0.00    +0.049 A 
ENDBRANCH   4  12
ENDBRANCH   1   4
BRANCH   1  15
ATOM     15  C   LIG    1        7.290  -2.610  -0.405  0.00  0.00    -0.047 C 
BRANCH  15  16
ATOM     16  C   LIG    1        8.428  -1.912  -1.152  0.00  0.00    +0.135 C 
BRANCH  16  17
ATOM     17  O   LIG    1        8.216  -2.030  -2.560  0.00  0.00    -0.390 OA
ATOM     18  H   LIG    1        8.183  -2.942  -2.878  0.00  0.00    +0.210 HD
ENDBRANCH  16  17
BRANCH  16  19
ATOM     19  C   LIG    1        9.759  -2.568  -0.780  0.00  0.00    +0.258 C 
BRANCH  19  20
ATOM     20  O   LIG    1       10.832  -1.845  -1.386  0.00  0.00    -0.487 OA
BRANCH  20  21
ATOM     21  C   LIG    1       12.092  -2.300  -1.154  0.00  0.00    +0.156 A 
ATOM     22  C   LIG    1       12.291  -3.423  -0.364  0.00  0.00    +0.048 A 
ATOM     23  C   LIG    1       13.572  -3.884  -0.130  0.00  0.00    +0.004 A 
ATOM     24  C   LIG    1       14.657  -3.227  -0.680  0.00  0.00    +0.003 A 
ATOM     25  C   LIG    1       14.464  -2.107  -1.468  0.00  0.00    +0.042 A 
ATOM     26  C   LIG    1       13.183  -1.645  -1.711  0.00  0.00    +0.165 A 
ATOM     27  F   LIG    1       12.993  -0.554  -2.485  0.00  0.00    -0.202 F 
ENDBRANCH  20  21
ENDBRANCH  19  20
ENDBRANCH  16  19
ENDBRANCH  15  16
ENDBRANCH   1  15
TORSDOF 8
