REMARK  Name = ZINC06525315
REMARK                            x       y       z     vdW  Elec       q    Type
REMARK                         _______ _______ _______ _____ _____    ______ ____
ROOT
ATOM      1  O   LIG    1        0.002  -0.004   0.002  0.00  0.00    -0.489 OA
ENDROOT
BRANCH   1   4
ATOM      2  C   LIG    1        1.777  -0.507  -3.131  0.00  0.00    +0.023 A 
ATOM      3  C   LIG    1        1.167   0.153  -2.075  0.00  0.00    +0.052 A 
ATOM      4  C   LIG    1        0.606  -0.607  -1.056  0.00  0.00    +0.174 A 
ATOM      5  C   LIG    1        0.666  -1.994  -1.137  0.00  0.00    +0.255 A 
ATOM      6  F   LIG    1        0.121  -2.746  -0.157  0.00  0.00    -0.180 F 
ATOM      7  N   LIG    1        1.252  -2.583  -2.163  0.00  0.00    -0.225 NA
ATOM      8  C   LIG    1        1.798  -1.888  -3.143  0.00  0.00    +0.114 A 
ENDBRANCH   1   4
BRANCH   1   9
ATOM      9  C   LIG    1       -0.017   1.425   0.010  0.00  0.00    +0.213 C 
BRANCH   9  10
ATOM     10  C   LIG    1       -0.733   1.918   1.269  0.00  0.00    -0.035 C 
ATOM     11  N   LIG    1        0.039   2.074   2.398  0.00  0.00    +0.383 N 
ATOM     12  H   LIG    1       -0.070   1.300   3.063  0.00  0.00    -0.085 HD
ATOM     13  H   LIG    1        1.035   2.202   2.183  0.00  0.00    -0.085 HD
ATOM     14  C   LIG    1       -0.566   3.234   2.826  0.00  0.00    -0.084 C 
ATOM     15  C   LIG    1       -0.869   3.446   1.336  0.00  0.00    -0.032 C 
ENDBRANCH   9  10
ENDBRANCH   1   9
TORSDOF 3
