REMARK  Name = ZINC06576609
REMARK                            x       y       z     vdW  Elec       q    Type
REMARK                         _______ _______ _______ _____ _____    ______ ____
ROOT
ATOM      1  C   LIG    1        3.931  -0.080   1.451  0.00  0.00    +0.050 C 
ATOM      2  N   LIG    1        4.978  -0.129   0.785  0.00  0.00    -0.250 NA
ATOM      3  C   LIG    1        5.601   0.371  -0.282  0.00  0.00    +0.078 A 
ATOM      4  C   LIG    1        6.819  -0.269  -0.610  0.00  0.00    +0.029 A 
ATOM      5  C   LIG    1        7.554   0.104  -1.706  0.00  0.00    +0.002 A 
ATOM      6  C   LIG    1        7.105   1.131  -2.520  0.00  0.00    +0.001 A 
ATOM      7  C   LIG    1        5.931   1.776  -2.213  0.00  0.00    +0.017 A 
ATOM      8  C   LIG    1        5.167   1.419  -1.095  0.00  0.00    +0.034 A 
ATOM      9  S   LIG    1        3.708   2.341  -0.812  0.00  0.00    -0.115 S 
ATOM     10  C   LIG    1        2.494   1.248  -0.086  0.00  0.00    +0.090 C 
ATOM     11  C   LIG    1        2.798   0.879   1.338  0.00  0.00    +0.075 C 
ENDROOT
BRANCH   1  17
ATOM     12  C   LIG    1        2.414  -3.976   6.346  0.00  0.00    +0.001 A 
ATOM     13  C   LIG    1        1.488  -2.936   6.290  0.00  0.00    +0.001 A 
ATOM     14  C   LIG    1        1.581  -1.967   5.340  0.00  0.00    +0.008 A 
ATOM     15  C   LIG    1        2.625  -2.012   4.398  0.00  0.00    -0.017 A 
ATOM     16  C   LIG    1        2.753  -1.026   3.409  0.00  0.00    +0.018 A 
ATOM     17  C   LIG    1        3.793  -1.108   2.495  0.00  0.00    -0.003 A 
ATOM     18  C   LIG    1        4.722  -2.164   2.563  0.00  0.00    +0.010 A 
ATOM     19  C   LIG    1        4.615  -3.123   3.517  0.00  0.00    +0.009 A 
ATOM     20  C   LIG    1        3.567  -3.071   4.455  0.00  0.00    -0.018 A 
ATOM     21  C   LIG    1        3.438  -4.053   5.451  0.00  0.00    +0.008 A 
ENDBRANCH   1  17
BRANCH  10  22
ATOM     22  C   LIG    1        1.147   1.923  -0.132  0.00  0.00    +0.001 A 
ATOM     23  C   LIG    1        1.065   3.303  -0.136  0.00  0.00    +0.007 A 
ATOM     24  C   LIG    1       -0.170   3.922  -0.178  0.00  0.00    +0.000 A 
ATOM     25  C   LIG    1       -1.324   3.163  -0.218  0.00  0.00    +0.003 A 
ATOM     26  C   LIG    1       -1.245   1.783  -0.220  0.00  0.00    +0.038 A 
ATOM     27  C   LIG    1       -0.009   1.161  -0.172  0.00  0.00    +0.128 A 
ATOM     28  F   LIG    1        0.070  -0.187  -0.169  0.00  0.00    -0.205 F 
ENDBRANCH  10  22
TORSDOF 2
