REMARK  Name = ZINC06473379
REMARK                            x       y       z     vdW  Elec       q    Type
REMARK                         _______ _______ _______ _____ _____    ______ ____
ROOT
ATOM      1  C   LIG    1       -0.017   1.382   0.010  0.00  0.00    +0.034 A 
ATOM      2  C   LIG    1        1.157   2.103   0.002  0.00  0.00    +0.031 A 
ATOM      3  C   LIG    1        2.387   1.438  -0.013  0.00  0.00    +0.077 A 
ATOM      4  C   LIG    1        2.396   0.028  -0.021  0.00  0.00    +0.035 A 
ATOM      5  C   LIG    1        3.825  -0.359  -0.037  0.00  0.00    +0.152 C 
ATOM      6  C   LIG    1        4.548   0.926  -0.037  0.00  0.00    +0.241 C 
ATOM      7  N   LIG    1        4.333  -1.571  -0.049  0.00  0.00    -0.175 NA
ATOM      8  C   LIG    1        1.205  -0.683  -0.013  0.00  0.00    +0.045 A 
ATOM      9  N   LIG    1        3.667   1.893  -0.023  0.00  0.00    -0.211 NA
ATOM     10  C   LIG    1        0.002  -0.004   0.002  0.00  0.00    +0.122 A 
ENDROOT
BRANCH   6  11
ATOM     11  O   LIG    1        5.894   1.079  -0.049  0.00  0.00    -0.491 OA
ATOM     12  H   LIG    1        6.451   0.326  -0.059  0.00  0.00    +0.294 HD
ENDBRANCH   6  11
BRANCH   7  13
ATOM     13  N   LIG    1        5.612  -1.734  -0.062  0.00  0.00    -0.218 N 
ATOM     14  H   LIG    1        6.200  -0.962  -0.064  0.00  0.00    +0.176 HD
BRANCH  13  15
ATOM     15  C   LIG    1        6.133  -2.977  -0.075  0.00  0.00    +0.147 C 
ATOM     16  S   LIG    1        7.832  -3.193  -0.092  0.00  0.00    -0.017 S 
BRANCH  15  17
ATOM     17  N   LIG    1        5.317  -4.050  -0.073  0.00  0.00    -0.339 N 
ATOM     18  H   LIG    1        5.692  -4.944  -0.082  0.00  0.00    +0.144 HD
ATOM     19  H   LIG    1        4.355  -3.927  -0.063  0.00  0.00    +0.144 HD
ENDBRANCH  15  17
ENDBRANCH  13  15
ENDBRANCH   7  13
BRANCH  10  20
ATOM     20  N   LIG    1       -1.271  -0.759   0.011  0.00  0.00    +0.006 N 
ATOM     21  O   LIG    1       -2.325  -0.167   0.024  0.00  0.00    -0.130 OA
BRANCH  20  22
ATOM     22  O   LIG    1       -1.257  -1.968   0.004  0.00  0.00    -0.396 OA
ATOM     23  H   LIG    1       -0.440  -2.427  -0.007  0.00  0.00    +0.329 HD
ENDBRANCH  20  22
ENDBRANCH  10  20
TORSDOF 6
