REMARK  Name = ZINC06578340
REMARK                            x       y       z     vdW  Elec       q    Type
REMARK                         _______ _______ _______ _____ _____    ______ ____
ROOT
ATOM      1  C   LIG    1       -0.156  -1.064  -0.004  0.00  0.00    -0.023 A 
ATOM      2  C   LIG    1       -0.602   0.263   0.007  0.00  0.00    +0.011 A 
ATOM      3  C   LIG    1        0.304   1.301   0.004  0.00  0.00    +0.048 A 
ATOM      4  C   LIG    1        1.667   1.040  -0.009  0.00  0.00    +0.144 A 
ATOM      5  C   LIG    1        2.128  -0.287  -0.021  0.00  0.00    +0.128 A 
ATOM      6  C   LIG    1        1.210  -1.339  -0.013  0.00  0.00    +0.041 A 
ENDROOT
BRANCH   1   8
ATOM      7  C   LIG    1       -2.446  -1.904   0.007  0.00  0.00    +0.008 C 
ATOM      8  C   LIG    1       -1.130  -2.169  -0.001  0.00  0.00    +0.008 C 
BRANCH   7  12
ATOM      9  C   LIG    1       -5.252  -5.088  -0.000  0.00  0.00    +0.000 A 
ATOM     10  C   LIG    1       -5.697  -3.778   0.011  0.00  0.00    +0.001 A 
ATOM     11  C   LIG    1       -4.791  -2.738   0.013  0.00  0.00    +0.008 A 
ATOM     12  C   LIG    1       -3.421  -3.010   0.005  0.00  0.00    -0.025 A 
ATOM     13  C   LIG    1       -2.978  -4.335  -0.012  0.00  0.00    +0.008 A 
ATOM     14  C   LIG    1       -3.896  -5.365  -0.009  0.00  0.00    +0.001 A 
ENDBRANCH   7  12
ENDBRANCH   1   8
BRANCH   4  15
ATOM     15  O   LIG    1        2.554   2.066  -0.012  0.00  0.00    -0.505 OA
ATOM     16  H   LIG    1        2.820   2.359   0.871  0.00  0.00    +0.292 HD
ENDBRANCH   4  15
BRANCH   5  17
ATOM     17  N   LIG    1        3.467  -0.546  -0.034  0.00  0.00    -0.146 NA
ATOM     18  N   LIG    1        3.887  -1.766  -0.044  0.00  0.00    -0.149 NA
BRANCH  18  19
ATOM     19  C   LIG    1        5.229  -2.026  -0.058  0.00  0.00    +0.086 A 
ATOM     20  C   LIG    1        6.146  -0.971  -0.065  0.00  0.00    +0.030 A 
ATOM     21  C   LIG    1        7.497  -1.234  -0.073  0.00  0.00    +0.018 A 
ATOM     22  C   LIG    1        7.951  -2.554  -0.085  0.00  0.00    +0.061 A 
ATOM     23  C   LIG    1        7.036  -3.608  -0.083  0.00  0.00    +0.018 A 
ATOM     24  C   LIG    1        5.685  -3.348  -0.069  0.00  0.00    +0.030 A 
BRANCH  22  25
ATOM     25  C   LIG    1        9.404  -2.836  -0.099  0.00  0.00    +0.266 C 
ATOM     26  N   LIG    1        9.771  -4.108  -0.109  0.00  0.00    -0.288 N 
ATOM     27  H   LIG    1        9.059  -4.848  -0.107  0.00  0.00    +0.301 HD
ATOM     28  H   LIG    1       10.761  -4.353  -0.119  0.00  0.00    +0.301 HD
BRANCH  25  29
ATOM     29  N   LIG    1       10.308  -1.795  -0.101  0.00  0.00    -0.250 N 
ATOM     30  H   LIG    1       11.260  -1.979  -0.110  0.00  0.00    +0.288 HD
ATOM     31  H   LIG    1        9.992  -0.878  -0.093  0.00  0.00    +0.288 HD
ENDBRANCH  25  29
ENDBRANCH  22  25
ENDBRANCH  18  19
ENDBRANCH   5  17
TORSDOF 7
