REMARK  Name = ZINC05966229
REMARK                            x       y       z     vdW  Elec       q    Type
REMARK                         _______ _______ _______ _____ _____    ______ ____
ROOT
ATOM      1  C   LIG    1       -7.083   0.732   1.789  0.00  0.00    -0.096 C 
ATOM      2  N   LIG    1       -6.165   1.655   1.092  0.00  0.00    +0.378 N 
ATOM      3  H   LIG    1       -6.714   2.408   0.660  0.00  0.00    -0.082 HD
ATOM      4  C   LIG    1       -5.429   0.930   0.033  0.00  0.00    -0.075 C 
ATOM      5  C   LIG    1       -4.651   1.951  -0.812  0.00  0.00    +0.013 C 
ATOM      6  C   LIG    1       -3.776   2.762   0.121  0.00  0.00    -0.065 C 
ATOM      7  C   LIG    1       -2.478   2.953  -0.140  0.00  0.00    -0.011 C 
ATOM      8  C   LIG    1       -1.829   2.375  -1.350  0.00  0.00    -0.014 A 
ATOM      9  C   LIG    1       -2.369   2.699  -2.595  0.00  0.00    +0.009 A 
ATOM     10  C   LIG    1       -1.777   2.241  -3.753  0.00  0.00    +0.001 A 
ATOM     11  C   LIG    1       -0.642   1.455  -3.664  0.00  0.00    +0.000 A 
ATOM     12  C   LIG    1       -0.118   1.123  -2.436  0.00  0.00    +0.004 A 
ATOM     13  C   LIG    1       -0.703   1.566  -1.247  0.00  0.00    -0.039 A 
ATOM     14  C   LIG    1       -0.013   1.086   0.008  0.00  0.00    +0.040 C 
ATOM     15  C   LIG    1       -0.680   1.554   1.284  0.00  0.00    +0.040 C 
ATOM     16  C   LIG    1       -0.635   3.050   1.436  0.00  0.00    -0.039 A 
ATOM     17  C   LIG    1        0.267   3.698   2.247  0.00  0.00    +0.004 A 
ATOM     18  C   LIG    1        0.151   5.072   2.408  0.00  0.00    +0.000 A 
ATOM     19  C   LIG    1       -0.850   5.777   1.765  0.00  0.00    +0.001 A 
ATOM     20  C   LIG    1       -1.744   5.124   0.931  0.00  0.00    +0.009 A 
ATOM     21  C   LIG    1       -1.609   3.754   0.765  0.00  0.00    -0.014 A 
ATOM     22  C   LIG    1       -4.423   3.356   1.355  0.00  0.00    +0.013 C 
ATOM     23  C   LIG    1       -5.217   2.250   2.060  0.00  0.00    -0.075 C 
ENDROOT
TORSDOF 0
