REMARK  Name = ZINC06744956
REMARK                            x       y       z     vdW  Elec       q    Type
REMARK                         _______ _______ _______ _____ _____    ______ ____
ROOT
ATOM      1  O   LIG    1        1.492   4.467   4.811  0.00  0.00    -0.486 OA
ENDROOT
BRANCH   1   6
ATOM      2  C   LIG    1       -0.013   1.086   0.008  0.00  0.00    +0.065 C 
ATOM      3  C   LIG    1       -0.637   1.602   1.312  0.00  0.00    +0.047 C 
ATOM      4  C   LIG    1        0.432   2.418   1.998  0.00  0.00    -0.031 A 
ATOM      5  C   LIG    1        0.405   3.103   3.194  0.00  0.00    +0.051 A 
ATOM      6  C   LIG    1        1.527   3.795   3.633  0.00  0.00    +0.141 A 
ATOM      7  C   LIG    1        2.687   3.800   2.865  0.00  0.00    +0.101 A 
ATOM      8 CL   LIG    1        4.088   4.666   3.416  0.00  0.00    -0.078 Cl
ATOM      9  C   LIG    1        2.726   3.119   1.669  0.00  0.00    +0.074 A 
ATOM     10 CL   LIG    1        4.176   3.127   0.714  0.00  0.00    -0.081 Cl
ATOM     11  C   LIG    1        1.593   2.417   1.220  0.00  0.00    +0.041 A 
ATOM     12  C   LIG    1        1.396   1.628  -0.003  0.00  0.00    +0.168 C 
ATOM     13  O   LIG    1        2.222   1.444  -0.871  0.00  0.00    -0.292 OA
BRANCH   2  14
ATOM     14  C   LIG    1       -0.792   1.611  -1.199  0.00  0.00    +0.011 C 
BRANCH  14  16
ATOM     15  C   LIG    1       -0.989   1.538  -3.689  0.00  0.00    +0.004 C 
ATOM     16  C   LIG    1       -0.210   1.013  -2.482  0.00  0.00    -0.003 C 
ENDBRANCH  14  16
ENDBRANCH   2  14
ENDBRANCH   1   6
BRANCH   1  17
ATOM     17  C   LIG    1        0.268   4.420   5.548  0.00  0.00    +0.264 C 
BRANCH  17  18
ATOM     18  C   LIG    1        0.416   5.216   6.819  0.00  0.00    -0.010 A 
ATOM     19  C   LIG    1        0.860   4.599   7.974  0.00  0.00    +0.007 A 
ATOM     20  C   LIG    1        1.000   5.330   9.139  0.00  0.00    +0.001 A 
ATOM     21  C   LIG    1        0.688   6.677   9.151  0.00  0.00    +0.004 A 
ATOM     22  C   LIG    1        0.239   7.293   7.998  0.00  0.00    -0.037 A 
ATOM     23  C   LIG    1        0.103   6.562   6.832  0.00  0.00    +0.011 A 
BRANCH  22  24
ATOM     24  C   LIG    1       -0.102   8.761   8.011  0.00  0.00    +0.109 C 
BRANCH  24  25
ATOM     25  S   LIG    1       -1.851   8.971   8.441  0.00  0.00    -0.120 S 
BRANCH  25  26
ATOM     26  C   LIG    1       -2.089  10.717   8.415  0.00  0.00    +0.011 A 
ATOM     27  C   LIG    1       -1.034  11.579   8.113  0.00  0.00    +0.034 A 
ATOM     28  C   LIG    1       -1.264  12.938   8.098  0.00  0.00    +0.112 A 
ATOM     29  N   LIG    1       -2.459  13.426   8.375  0.00  0.00    -0.263 NA
ATOM     30  C   LIG    1       -3.481  12.645   8.671  0.00  0.00    +0.112 A 
ATOM     31  C   LIG    1       -3.336  11.274   8.702  0.00  0.00    +0.034 A 
ENDBRANCH  25  26
ENDBRANCH  24  25
ENDBRANCH  22  24
ENDBRANCH  17  18
ENDBRANCH   1  17
TORSDOF 8
