REMARK  Name = ZINC06091496
REMARK                            x       y       z     vdW  Elec       q    Type
REMARK                         _______ _______ _______ _____ _____    ______ ____
ROOT
ATOM      1  C   LIG    1       -0.319   2.445  -4.751  0.00  0.00    +0.053 A 
ATOM      2  C   LIG    1       -0.393   2.341  -3.372  0.00  0.00    -0.042 A 
ATOM      3  C   LIG    1       -0.750   3.441  -2.614  0.00  0.00    -0.042 A 
ATOM      4  C   LIG    1       -0.758   3.070  -1.146  0.00  0.00    +0.019 C 
ATOM      5  C   LIG    1       -0.795   1.527  -1.120  0.00  0.00    -0.066 C 
ATOM      6  C   LIG    1       -1.033   4.646  -3.235  0.00  0.00    +0.053 A 
ATOM      7  C   LIG    1       -0.961   4.756  -4.613  0.00  0.00    +0.167 A 
ATOM      8  O   LIG    1       -1.186   5.809  -5.452  0.00  0.00    -0.453 OA
ATOM      9  C   LIG    1       -0.566   5.445  -6.700  0.00  0.00    +0.466 C 
ATOM     10  O   LIG    1       -0.603   4.006  -6.693  0.00  0.00    -0.453 OA
ATOM     11  C   LIG    1       -0.139   1.152  -2.465  0.00  0.00    +0.019 C 
ATOM     12  C   LIG    1       -0.602   3.647  -5.376  0.00  0.00    +0.167 A 
ENDROOT
BRANCH   5  13
ATOM     13  N   LIG    1       -0.025   1.014   0.027  0.00  0.00    +0.380 N 
ATOM     14  H   LIG    1       -0.476   1.316   0.899  0.00  0.00    -0.090 HD
ATOM     15  H   LIG    1        0.925   1.379   0.001  0.00  0.00    -0.090 HD
ATOM     16  H   LIG    1        0.002  -0.004   0.002  0.00  0.00    -0.090 HD
ENDBRANCH   5  13
TORSDOF 1
