REMARK  Name = ZINC05882972
REMARK                            x       y       z     vdW  Elec       q    Type
REMARK                         _______ _______ _______ _____ _____    ______ ____
ROOT
ATOM      1  C   LIG    1        1.287  -2.167  -0.021  0.00  0.00    +0.082 C 
ENDROOT
BRANCH   1   8
ATOM      2  C   LIG    1        1.886  -1.458  -2.346  0.00  0.00    +0.006 A 
ATOM      3  C   LIG    1        2.578  -1.636  -3.529  0.00  0.00    +0.020 A 
ATOM      4  C   LIG    1        3.412  -2.729  -3.685  0.00  0.00    +0.041 A 
ATOM      5 CL   LIG    1        4.276  -2.957  -5.173  0.00  0.00    -0.084 Cl
ATOM      6  C   LIG    1        3.558  -3.639  -2.654  0.00  0.00    +0.020 A 
ATOM      7  C   LIG    1        2.870  -3.457  -1.469  0.00  0.00    +0.006 A 
ATOM      8  C   LIG    1        2.037  -2.365  -1.314  0.00  0.00    -0.035 A 
ENDBRANCH   1   8
BRANCH   1   9
ATOM      9  C   LIG    1        2.094  -2.733   1.119  0.00  0.00    -0.035 A 
ATOM     10  C   LIG    1        3.411  -2.350   1.289  0.00  0.00    +0.006 A 
ATOM     11  C   LIG    1        4.150  -2.864   2.338  0.00  0.00    +0.020 A 
ATOM     12  C   LIG    1        3.574  -3.770   3.212  0.00  0.00    +0.041 A 
ATOM     13 CL   LIG    1        4.503  -4.421   4.526  0.00  0.00    -0.084 Cl
ATOM     14  C   LIG    1        2.257  -4.156   3.037  0.00  0.00    +0.020 A 
ATOM     15  C   LIG    1        1.518  -3.637   1.991  0.00  0.00    +0.006 A 
ENDBRANCH   1   9
BRANCH   1  16
ATOM     16  C   LIG    1        1.058  -0.695   0.206  0.00  0.00    +0.001 A 
ATOM     17  C   LIG    1       -0.215  -0.204   0.449  0.00  0.00    +0.118 A 
ATOM     18  N   LIG    1       -0.377   1.095   0.645  0.00  0.00    -0.243 NA
ATOM     19  C   LIG    1        0.653   1.917   0.611  0.00  0.00    +0.221 A 
ATOM     20  N   LIG    1        1.877   1.485   0.383  0.00  0.00    -0.243 NA
ATOM     21  C   LIG    1        2.116   0.200   0.178  0.00  0.00    +0.118 A 
ENDBRANCH   1  16
TORSDOF 3
