REMARK  Name = ZINC06093641
REMARK                            x       y       z     vdW  Elec       q    Type
REMARK                         _______ _______ _______ _____ _____    ______ ____
ROOT
ATOM      1  C   LIG    1       -0.022   1.781   0.012  0.00  0.00    +0.026 A 
ATOM      2  C   LIG    1        1.328   2.092   0.001  0.00  0.00    +0.017 A 
ATOM      3  C   LIG    1        2.238   1.069  -0.014  0.00  0.00    +0.017 A 
ATOM      4  C   LIG    1        1.772  -0.236  -0.016  0.00  0.00    +0.027 A 
ATOM      5  S   LIG    1        0.002  -0.004   0.002  0.00  0.00    -0.087 S 
ENDROOT
BRANCH   1   8
ATOM      6  C   LIG    1       -3.433   3.419   0.038  0.00  0.00    +0.008 A 
ATOM      7  C   LIG    1       -2.527   2.383   0.028  0.00  0.00    +0.016 A 
ATOM      8  C   LIG    1       -1.179   2.689   0.023  0.00  0.00    +0.026 A 
ATOM      9  S   LIG    1       -1.208   4.474   0.040  0.00  0.00    -0.096 S 
ATOM     10  C   LIG    1       -2.979   4.699   0.042  0.00  0.00    +0.046 A 
ENDBRANCH   1   8
BRANCH   4  11
ATOM     11  C   LIG    1        2.537  -1.489  -0.031  0.00  0.00    +0.027 A 
ATOM     12  C   LIG    1        2.069  -2.798  -0.033  0.00  0.00    +0.018 A 
ATOM     13  C   LIG    1        2.977  -3.818  -0.048  0.00  0.00    +0.027 A 
ATOM     14  C   LIG    1        4.330  -3.506  -0.060  0.00  0.00    +0.089 A 
ATOM     15  S   LIG    1        4.307  -1.721  -0.057  0.00  0.00    -0.077 S 
BRANCH  14  16
ATOM     16  C   LIG    1        5.456  -4.391  -0.077  0.00  0.00    +0.106 C 
ATOM     17  N   LIG    1        6.350  -5.093  -0.090  0.00  0.00    -0.190 NA
ENDBRANCH  14  16
ENDBRANCH   4  11
TORSDOF 3
