REMARK  Name = ZINC06092536
REMARK                            x       y       z     vdW  Elec       q    Type
REMARK                         _______ _______ _______ _____ _____    ______ ____
ROOT
ATOM      1  C   LIG    1        3.654   2.157  -0.022  0.00  0.00    +0.008 C 
ATOM      2  C   LIG    1        3.640   3.499  -0.015  0.00  0.00    +0.008 C 
ENDROOT
BRANCH   1   5
ATOM      3  C   LIG    1       -0.017   1.379   0.010  0.00  0.00    +0.003 A 
ATOM      4  C   LIG    1        1.166   2.089   0.002  0.00  0.00    +0.008 A 
ATOM      5  C   LIG    1        2.386   1.407  -0.013  0.00  0.00    -0.023 A 
ATOM      6  C   LIG    1        2.397   0.009  -0.021  0.00  0.00    +0.040 A 
ATOM      7  C   LIG    1        1.206  -0.686  -0.013  0.00  0.00    +0.122 A 
ATOM      8  C   LIG    1        0.002  -0.004   0.002  0.00  0.00    +0.032 A 
BRANCH   7   9
ATOM      9  N   LIG    1        1.216  -2.167  -0.021  0.00  0.00    +0.006 N 
ATOM     10  O   LIG    1        2.266  -2.764  -0.035  0.00  0.00    -0.130 OA
BRANCH   9  11
ATOM     11  O   LIG    1        0.172  -2.778  -0.015  0.00  0.00    -0.396 OA
ATOM     12  H   LIG    1       -0.642  -2.315  -0.004  0.00  0.00    +0.329 HD
ENDBRANCH   9  11
ENDBRANCH   7   9
ENDBRANCH   1   5
BRANCH   2  13
ATOM     13  C   LIG    1        4.908   4.250  -0.023  0.00  0.00    -0.025 A 
ATOM     14  C   LIG    1        6.127   3.568  -0.044  0.00  0.00    +0.010 A 
ATOM     15  C   LIG    1        7.310   4.277  -0.052  0.00  0.00    +0.033 A 
ATOM     16  C   LIG    1        7.292   5.661  -0.039  0.00  0.00    +0.122 A 
ATOM     17  C   LIG    1        6.088   6.343  -0.018  0.00  0.00    +0.033 A 
ATOM     18  C   LIG    1        4.897   5.647  -0.016  0.00  0.00    +0.010 A 
BRANCH  16  19
ATOM     19  N   LIG    1        8.566   6.415  -0.048  0.00  0.00    +0.006 N 
ATOM     20  O   LIG    1        9.619   5.821  -0.066  0.00  0.00    -0.130 OA
BRANCH  19  21
ATOM     21  O   LIG    1        8.553   7.623  -0.037  0.00  0.00    -0.396 OA
ATOM     22  H   LIG    1        7.736   8.083  -0.023  0.00  0.00    +0.329 HD
ENDBRANCH  19  21
ENDBRANCH  16  19
ENDBRANCH   2  13
TORSDOF 6
