REMARK  Name = ZINC07486121
REMARK                            x       y       z     vdW  Elec       q    Type
REMARK                         _______ _______ _______ _____ _____    ______ ____
ROOT
ATOM      1  C   LIG    1       -0.016   1.297   0.009  0.00  0.00    +0.198 A 
ATOM      2  N   LIG    1        1.260   1.780  -0.000  0.00  0.00    -0.329 N 
ATOM      3  C   LIG    1        2.108   0.701  -0.014  0.00  0.00    +0.165 A 
ATOM      4  C   LIG    1        1.286  -0.438  -0.013  0.00  0.00    +0.147 A 
ATOM      5  C   LIG    1        1.900  -1.702  -0.025  0.00  0.00    +0.149 A 
ATOM      6  N   LIG    1        3.227  -1.764  -0.037  0.00  0.00    -0.198 NA
ATOM      7  C   LIG    1        3.965  -0.662  -0.039  0.00  0.00    +0.216 A 
ATOM      8  N   LIG    1        3.429   0.548  -0.028  0.00  0.00    -0.195 NA
ATOM      9  H   LIG    1        1.520   2.714   0.002  0.00  0.00    +0.168 HD
ATOM     10  N   LIG    1        0.002  -0.004   0.002  0.00  0.00    -0.231 NA
ENDROOT
BRANCH   5  11
ATOM     11  N   LIG    1        1.139  -2.857  -0.023  0.00  0.00    -0.341 N 
ATOM     12  H   LIG    1        1.573  -3.725  -0.032  0.00  0.00    +0.144 HD
ATOM     13  H   LIG    1        0.171  -2.800  -0.014  0.00  0.00    +0.144 HD
ENDBRANCH   5  11
BRANCH   7  14
ATOM     14  N   LIG    1        5.345  -0.781  -0.052  0.00  0.00    -0.327 N 
ATOM     15  H   LIG    1        5.901   0.014  -0.053  0.00  0.00    +0.145 HD
ATOM     16  H   LIG    1        5.756  -1.659  -0.060  0.00  0.00    +0.145 HD
ENDBRANCH   7  14
TORSDOF 2
