REMARK  Name = ZINC06718642
REMARK                            x       y       z     vdW  Elec       q    Type
REMARK                         _______ _______ _______ _____ _____    ______ ____
ROOT
ATOM      1  C   LIG    1       -0.039  -2.144  -0.758  0.00  0.00    +0.023 A 
ATOM      2  C   LIG    1        0.154  -2.149   0.690  0.00  0.00    +0.067 A 
ATOM      3  C   LIG    1        0.326  -3.152   1.661  0.00  0.00    +0.129 A 
ATOM      4  N   LIG    1        0.480  -2.782   2.930  0.00  0.00    -0.220 NA
ATOM      5  C   LIG    1        0.472  -1.507   3.272  0.00  0.00    +0.225 A 
ATOM      6  N   LIG    1        0.315  -0.535   2.400  0.00  0.00    -0.218 NA
ATOM      7  C   LIG    1        0.153  -0.802   1.103  0.00  0.00    +0.147 A 
ATOM      8  N   LIG    1       -0.027  -0.019  -0.002  0.00  0.00    -0.322 N 
ATOM      9  C   LIG    1       -0.149  -0.810  -1.132  0.00  0.00    +0.098 A 
ENDROOT
BRANCH   1  14
ATOM     10  C   LIG    1       -0.309  -6.734  -4.220  0.00  0.00    +0.044 C 
ATOM     11  C   LIG    1       -0.238  -5.532  -3.313  0.00  0.00    -0.050 A 
ATOM     12  C   LIG    1       -1.245  -5.304  -2.392  0.00  0.00    +0.004 A 
ATOM     13  C   LIG    1       -1.186  -4.206  -1.559  0.00  0.00    +0.009 A 
ATOM     14  C   LIG    1       -0.108  -3.324  -1.648  0.00  0.00    -0.015 A 
ATOM     15  C   LIG    1        0.902  -3.557  -2.583  0.00  0.00    +0.009 A 
ATOM     16  C   LIG    1        0.833  -4.662  -3.406  0.00  0.00    +0.004 A 
ENDBRANCH   1  14
BRANCH   3  17
ATOM     17  N   LIG    1        0.335  -4.485   1.307  0.00  0.00    -0.343 N 
ATOM     18  H   LIG    1        0.221  -4.741   0.378  0.00  0.00    +0.144 HD
ATOM     19  H   LIG    1        0.454  -5.167   1.986  0.00  0.00    +0.144 HD
ENDBRANCH   3  17
BRANCH   9  20
ATOM     20  C   LIG    1       -0.350  -0.339  -2.446  0.00  0.00    +0.210 C 
ATOM     21  O   LIG    1        0.604  -0.121  -3.166  0.00  0.00    -0.288 OA
BRANCH  20  22
ATOM     22  C   LIG    1       -1.749  -0.105  -2.958  0.00  0.00    +0.294 C 
ATOM     23  F   LIG    1       -1.699   0.239  -4.313  0.00  0.00    -0.241 F 
ENDBRANCH  20  22
ENDBRANCH   9  20
BRANCH   8  24
ATOM     24  C   LIG    1       -0.087   1.444   0.007  0.00  0.00    +0.126 C 
BRANCH  24  25
ATOM     25  C   LIG    1        1.320   2.014  -0.179  0.00  0.00    +0.049 C 
BRANCH  25  26
ATOM     26  C   LIG    1        1.257   3.543  -0.169  0.00  0.00    +0.157 C 
BRANCH  26  27
ATOM     27  O   LIG    1        2.572   4.075  -0.344  0.00  0.00    -0.395 OA
ATOM     28  H   LIG    1        2.608   5.041  -0.347  0.00  0.00    +0.209 HD
ENDBRANCH  26  27
ENDBRANCH  25  26
ENDBRANCH  24  25
ENDBRANCH   8  24
TORSDOF 8
