REMARK  Name = ZINC06281719
REMARK                            x       y       z     vdW  Elec       q    Type
REMARK                         _______ _______ _______ _____ _____    ______ ____
ROOT
ATOM      1  N   LIG    1        2.612   1.185   0.020  0.00  0.00    -0.281 N 
ATOM      2  H   LIG    1        3.357   1.686   0.387  0.00  0.00    +0.155 HD
ATOM      3  C   LIG    1        2.812  -0.051  -0.479  0.00  0.00    +0.250 C 
ATOM      4  O   LIG    1        1.901  -0.639  -1.030  0.00  0.00    -0.270 OA
ENDROOT
BRANCH   3   5
ATOM      5  C   LIG    1        4.137  -0.691  -0.357  0.00  0.00    +0.055 A 
ATOM      6  C   LIG    1        5.185  -0.019   0.275  0.00  0.00    +0.016 A 
ATOM      7  C   LIG    1        6.420  -0.622   0.387  0.00  0.00    +0.021 A 
ATOM      8  C   LIG    1        6.623  -1.893  -0.127  0.00  0.00    +0.042 A 
ATOM      9 CL   LIG    1        8.181  -2.645   0.018  0.00  0.00    -0.083 Cl
ATOM     10  C   LIG    1        5.589  -2.566  -0.755  0.00  0.00    +0.040 A 
ATOM     11  C   LIG    1        4.346  -1.975  -0.869  0.00  0.00    +0.054 A 
ATOM     12 CL   LIG    1        3.048  -2.822  -1.651  0.00  0.00    -0.083 Cl
ENDBRANCH   3   5
BRANCH   1  17
ATOM     13  C   LIG    1       -2.596   3.442  -0.024  0.00  0.00    +0.044 C 
ATOM     14  C   LIG    1       -1.210   2.851  -0.011  0.00  0.00    -0.050 A 
ATOM     15  C   LIG    1       -1.047   1.475  -0.019  0.00  0.00    +0.005 A 
ATOM     16  C   LIG    1        0.217   0.920  -0.003  0.00  0.00    +0.024 A 
ATOM     17  C   LIG    1        1.337   1.741   0.010  0.00  0.00    +0.048 A 
ATOM     18  C   LIG    1        1.176   3.136   0.013  0.00  0.00    +0.080 A 
ATOM     19  C   LIG    1       -0.111   3.682   0.002  0.00  0.00    +0.020 A 
BRANCH  18  20
ATOM     20  C   LIG    1        2.356   4.018   0.027  0.00  0.00    +0.339 C 
ATOM     21  O   LIG    1        3.471   3.543  -0.059  0.00  0.00    -0.245 OA
BRANCH  20  22
ATOM     22  O   LIG    1        2.198   5.352   0.137  0.00  0.00    -0.477 OA
ATOM     23  H   LIG    1        1.338   5.718   0.204  0.00  0.00    +0.295 HD
ENDBRANCH  20  22
ENDBRANCH  18  20
ENDBRANCH   1  17
TORSDOF 4
