REMARK  Name = ZINC06717782
REMARK                            x       y       z     vdW  Elec       q    Type
REMARK                         _______ _______ _______ _____ _____    ______ ____
ROOT
ATOM      1  C   LIG    1        0.296  -6.910   4.758  0.00  0.00    +0.048 C 
ATOM      2  C   LIG    1        0.383  -6.109   6.032  0.00  0.00    +0.001 A 
ATOM      3  C   LIG    1        0.293  -6.607   7.337  0.00  0.00    +0.060 A 
ATOM      4  C   LIG    1        0.420  -5.554   8.195  0.00  0.00    +0.136 A 
ATOM      5  N   LIG    1        0.585  -4.419   7.476  0.00  0.00    -0.233 N 
ATOM      6  N   LIG    1        0.760  -3.075   7.834  0.00  0.00    -0.155 NA
ATOM      7  C   LIG    1        0.898  -2.165   6.909  0.00  0.00    +0.245 A 
ATOM      8  N   LIG    1        0.886  -2.463   5.611  0.00  0.00    -0.217 NA
ATOM      9  C   LIG    1        0.720  -3.705   5.186  0.00  0.00    +0.151 A 
ATOM     10  C   LIG    1        0.565  -4.743   6.133  0.00  0.00    +0.110 A 
ENDROOT
BRANCH   3  11
ATOM     11  N   LIG    1        0.106  -7.953   7.699  0.00  0.00    -0.249 N 
ATOM     12  H   LIG    1        0.027  -8.633   7.012  0.00  0.00    +0.158 HD
ATOM     13  C   LIG    1        0.038  -8.297   9.000  0.00  0.00    +0.405 C 
ATOM     14  O   LIG    1        0.137  -7.445   9.860  0.00  0.00    -0.226 OA
BRANCH  13  15
ATOM     15  O   LIG    1       -0.141  -9.586   9.347  0.00  0.00    -0.452 OA
BRANCH  15  16
ATOM     16  C   LIG    1       -0.206  -9.884  10.766  0.00  0.00    +0.220 C 
BRANCH  16  17
ATOM     17  C   LIG    1       -0.411 -11.388  10.963  0.00  0.00    -0.007 C 
ATOM     18  N   LIG    1        0.778 -12.109  10.468  0.00  0.00    +0.386 N 
ATOM     19  H   LIG    1        0.894 -11.923   9.465  0.00  0.00    -0.085 HD
ATOM     20  H   LIG    1        1.608 -11.782  10.975  0.00  0.00    -0.085 HD
ATOM     21  C   LIG    1        0.617 -13.560  10.680  0.00  0.00    -0.054 C 
ATOM     22  C   LIG    1        0.414 -13.837  12.171  0.00  0.00    +0.141 C 
ATOM     23  O   LIG    1       -0.719 -13.100  12.638  0.00  0.00    -0.383 OA
ATOM     24  C   LIG    1       -0.604 -11.687  12.452  0.00  0.00    +0.147 C 
ENDBRANCH  16  17
ENDBRANCH  15  16
ENDBRANCH  13  15
ENDBRANCH   3  11
BRANCH   9  25
ATOM     25  N   LIG    1        0.706  -3.985   3.833  0.00  0.00    -0.298 N 
ATOM     26  H   LIG    1        0.669  -4.905   3.529  0.00  0.00    +0.154 HD
BRANCH  25  27
ATOM     27  C   LIG    1        0.745  -2.941   2.902  0.00  0.00    +0.033 A 
ATOM     28  C   LIG    1        0.117  -1.729   3.191  0.00  0.00    +0.025 A 
ATOM     29  C   LIG    1        0.142  -0.698   2.296  0.00  0.00    +0.030 A 
ATOM     30  C   LIG    1        0.800  -0.848   1.078  0.00  0.00    +0.069 A 
ATOM     31  C   LIG    1        1.438  -2.066   0.776  0.00  0.00    +0.021 A 
ATOM     32  C   LIG    1        2.024  -1.905  -0.551  0.00  0.00    +0.143 A 
ATOM     33  N   LIG    1        1.742  -0.704  -0.968  0.00  0.00    -0.178 NA
ATOM     34  N   LIG    1        0.998  -0.021   0.001  0.00  0.00    -0.259 N 
ATOM     35  C   LIG    1        1.404  -3.115   1.701  0.00  0.00    +0.034 A 
BRANCH  34  36
ATOM     36  C   LIG    1        0.505   1.353  -0.119  0.00  0.00    +0.179 C 
BRANCH  36  37
ATOM     37  C   LIG    1        1.535   2.306   0.430  0.00  0.00    -0.023 A 
ATOM     38  C   LIG    1        2.507   2.828  -0.403  0.00  0.00    +0.005 A 
ATOM     39  C   LIG    1        3.453   3.702   0.099  0.00  0.00    +0.003 A 
ATOM     40  C   LIG    1        3.428   4.056   1.435  0.00  0.00    +0.038 A 
ATOM     41  C   LIG    1        2.455   3.534   2.270  0.00  0.00    +0.124 A 
ATOM     42  F   LIG    1        2.429   3.878   3.576  0.00  0.00    -0.205 F 
ATOM     43  C   LIG    1        1.505   2.662   1.765  0.00  0.00    +0.043 A 
ENDBRANCH  36  37
ENDBRANCH  34  36
ENDBRANCH  25  27
ENDBRANCH   9  25
TORSDOF 8
