REMARK  Name = ZINC06070636
REMARK                            x       y       z     vdW  Elec       q    Type
REMARK                         _______ _______ _______ _____ _____    ______ ____
ROOT
ATOM      1  C   LIG    1        1.151   3.596   0.010  0.00  0.00    +0.044 C 
ATOM      2  C   LIG    1        1.171   2.089   0.002  0.00  0.00    -0.047 A 
ATOM      3  C   LIG    1        2.377   1.414  -0.013  0.00  0.00    +0.004 A 
ATOM      4  C   LIG    1        2.399   0.032  -0.021  0.00  0.00    +0.007 A 
ATOM      5  C   LIG    1        1.214  -0.679  -0.013  0.00  0.00    -0.007 A 
ATOM      6  C   LIG    1        0.002  -0.004   0.002  0.00  0.00    +0.123 A 
ATOM      7  C   LIG    1       -0.017   1.383   0.010  0.00  0.00    +0.049 A 
ENDROOT
BRANCH   6   8
ATOM      8  O   LIG    1       -1.165  -0.701   0.010  0.00  0.00    -0.495 OA
ATOM      9  C   LIG    1       -2.374   0.060   0.026  0.00  0.00    +0.277 C 
ENDBRANCH   6   8
BRANCH   5  10
ATOM     10  C   LIG    1        1.238  -2.186  -0.022  0.00  0.00    +0.022 C 
BRANCH  10  11
ATOM     11  C   LIG    1        1.107  -2.689  -1.461  0.00  0.00    -0.074 C 
ATOM     12  C   LIG    1        1.256  -4.212  -1.484  0.00  0.00    -0.014 C 
BRANCH  11  13
ATOM     13  N   LIG    1       -0.210  -2.329  -2.014  0.00  0.00    +0.380 N 
ATOM     14  H   LIG    1       -0.290  -2.705  -2.966  0.00  0.00    -0.090 HD
ATOM     15  H   LIG    1       -0.310  -1.316  -2.047  0.00  0.00    -0.090 HD
ATOM     16  H   LIG    1       -0.951  -2.725  -1.438  0.00  0.00    -0.090 HD
ENDBRANCH  11  13
ENDBRANCH  10  11
ENDBRANCH   5  10
TORSDOF 4
