REMARK  Name = ZINC06625775
REMARK                            x       y       z     vdW  Elec       q    Type
REMARK                         _______ _______ _______ _____ _____    ______ ____
ROOT
ATOM      1  N   LIG    1       -0.067   1.120  -2.437  0.00  0.00    -0.327 N 
ATOM      2  H   LIG    1        0.730   0.573  -2.358  0.00  0.00    +0.148 HD
ENDROOT
BRANCH   1   3
ATOM      3  C   LIG    1       -0.543   1.446  -3.655  0.00  0.00    +0.130 C 
ATOM      4  S   LIG    1       -1.950   2.412  -3.793  0.00  0.00    -0.019 S 
BRANCH   3   5
ATOM      5  N   LIG    1        0.087   1.011  -4.764  0.00  0.00    -0.327 N 
ATOM      6  H   LIG    1        0.884   0.464  -4.685  0.00  0.00    +0.148 HD
BRANCH   5   7
ATOM      7  C   LIG    1       -0.431   1.366  -6.087  0.00  0.00    +0.103 C 
BRANCH   7   9
ATOM      8  C   LIG    1       -0.078   1.120  -8.549  0.00  0.00    +0.005 C 
ATOM      9  C   LIG    1        0.463   0.750  -7.166  0.00  0.00    +0.015 C 
ENDBRANCH   7   9
ENDBRANCH   5   7
ENDBRANCH   3   5
ENDBRANCH   1   3
BRANCH   1  10
ATOM     10  C   LIG    1       -0.753   1.593  -1.232  0.00  0.00    +0.105 C 
BRANCH  10  11
ATOM     11  C   LIG    1       -0.013   1.086   0.008  0.00  0.00    +0.040 C 
BRANCH  11  12
ATOM     12  C   LIG    1       -0.729   1.579   1.267  0.00  0.00    +0.124 C 
BRANCH  12  13
ATOM     13  N   LIG    1       -0.020   1.094   2.454  0.00  0.00    -0.338 N 
ATOM     14  C   LIG    1       -0.255  -0.081   3.116  0.00  0.00    +0.104 A 
ATOM     15  C   LIG    1        0.618  -0.132   4.140  0.00  0.00    +0.101 A 
ATOM     16  N   LIG    1        1.358   0.986   4.109  0.00  0.00    -0.352 N 
ATOM     17  H   LIG    1        2.104   1.222   4.773  0.00  0.00    +0.166 HD
ATOM     18  C   LIG    1        0.982   1.725   3.102  0.00  0.00    +0.173 A 
ENDBRANCH  12  13
ENDBRANCH  11  12
ENDBRANCH  10  11
ENDBRANCH   1  10
TORSDOF 8
