REMARK  Name = ZINC06310444
REMARK                            x       y       z     vdW  Elec       q    Type
REMARK                         _______ _______ _______ _____ _____    ______ ____
ROOT
ATOM      1  N   LIG    1       -2.656  -1.537   2.989  0.00  0.00    -0.291 N 
ATOM      2  C   LIG    1       -2.372  -0.112   3.021  0.00  0.00    +0.203 C 
ATOM      3  C   LIG    1       -1.451   0.302   1.919  0.00  0.00    +0.234 C 
ATOM      4  N   LIG    1       -0.965  -0.525   0.992  0.00  0.00    -0.276 N 
ATOM      5  C   LIG    1       -1.344  -1.935   0.899  0.00  0.00    +0.167 C 
ATOM      6  C   LIG    1       -2.095  -2.169  -0.419  0.00  0.00    +0.069 C 
ATOM      7  C   LIG    1       -1.351  -1.479  -1.533  0.00  0.00    -0.015 A 
ATOM      8  C   LIG    1       -1.472  -1.692  -2.961  0.00  0.00    +0.003 A 
ATOM      9  C   LIG    1       -2.265  -2.554  -3.727  0.00  0.00    +0.010 A 
ATOM     10  C   LIG    1       -2.118  -2.485  -5.090  0.00  0.00    +0.001 A 
ATOM     11  C   LIG    1       -1.230  -1.607  -5.691  0.00  0.00    +0.002 A 
ATOM     12  C   LIG    1       -0.434  -0.744  -4.958  0.00  0.00    +0.026 A 
ATOM     13  C   LIG    1       -0.561  -0.793  -3.571  0.00  0.00    +0.047 A 
ATOM     14  N   LIG    1        0.056  -0.099  -2.571  0.00  0.00    -0.356 N 
ATOM     15  H   LIG    1        0.731   0.586  -2.700  0.00  0.00    +0.166 HD
ATOM     16  C   LIG    1       -0.420  -0.516  -1.356  0.00  0.00    +0.046 A 
ATOM     17  C   LIG    1        0.002  -0.004   0.002  0.00  0.00    +0.154 C 
ATOM     18  O   LIG    1       -1.124   1.469   1.864  0.00  0.00    -0.274 OA
ATOM     19  C   LIG    1       -2.200  -2.362   2.048  0.00  0.00    +0.237 C 
ATOM     20  O   LIG    1       -2.499  -3.535   2.127  0.00  0.00    -0.274 OA
ENDROOT
BRANCH  17  21
ATOM     21  C   LIG    1       -0.018   1.503   0.010  0.00  0.00    -0.021 A 
ATOM     22  C   LIG    1        1.081   2.205   0.469  0.00  0.00    +0.009 A 
ATOM     23  C   LIG    1        1.066   3.587   0.472  0.00  0.00    +0.046 A 
ATOM     24  C   LIG    1       -0.056   4.269   0.025  0.00  0.00    +0.120 A 
ATOM     25  C   LIG    1       -1.159   3.562  -0.429  0.00  0.00    +0.046 A 
ATOM     26  C   LIG    1       -1.138   2.180  -0.436  0.00  0.00    +0.009 A 
BRANCH  24  27
ATOM     27  O   LIG    1       -0.074   5.628   0.033  0.00  0.00    -0.495 OA
ATOM     28  C   LIG    1        1.097   6.290   0.514  0.00  0.00    +0.277 C 
ENDBRANCH  24  27
ENDBRANCH  17  21
BRANCH   1  29
ATOM     29  C   LIG    1       -3.492  -2.098   4.052  0.00  0.00    +0.108 C 
BRANCH  29  30
ATOM     30  C   LIG    1       -4.961  -2.041   3.630  0.00  0.00    +0.019 C 
BRANCH  30  32
ATOM     31  C   LIG    1       -7.304  -2.570   4.318  0.00  0.00    +0.004 C 
ATOM     32  C   LIG    1       -5.835  -2.627   4.741  0.00  0.00    -0.002 C 
ENDBRANCH  30  32
ENDBRANCH  29  30
ENDBRANCH   1  29
TORSDOF 5
