REMARK  Name = ZINC06072466
REMARK                            x       y       z     vdW  Elec       q    Type
REMARK                         _______ _______ _______ _____ _____    ______ ____
ROOT
ATOM      1  C   LIG    1        5.737   7.513  -0.012  0.00  0.00    +0.000 C 
ENDROOT
BRANCH   1   2
ATOM      2  C   LIG    1        5.796   9.042  -0.005  0.00  0.00    -0.000 C 
BRANCH   2   3
ATOM      3  C   LIG    1        7.258   9.496  -0.016  0.00  0.00    -0.000 C 
BRANCH   3   4
ATOM      4  C   LIG    1        7.317  11.024  -0.009  0.00  0.00    -0.000 C 
BRANCH   4   5
ATOM      5  C   LIG    1        8.778  11.478  -0.020  0.00  0.00    -0.000 C 
BRANCH   5   6
ATOM      6  C   LIG    1        8.837  13.007  -0.013  0.00  0.00    -0.000 C 
BRANCH   6   7
ATOM      7  C   LIG    1       10.299  13.461  -0.024  0.00  0.00    -0.000 C 
BRANCH   7   8
ATOM      8  C   LIG    1       10.358  14.990  -0.016  0.00  0.00    -0.000 C 
BRANCH   8   9
ATOM      9  C   LIG    1       11.819  15.443  -0.028  0.00  0.00    -0.003 C 
ATOM     10  C   LIG    1       11.878  16.972  -0.020  0.00  0.00    +0.004 C 
ENDBRANCH   8   9
ENDBRANCH   7   8
ENDBRANCH   6   7
ENDBRANCH   5   6
ENDBRANCH   4   5
ENDBRANCH   3   4
ENDBRANCH   2   3
ENDBRANCH   1   2
BRANCH   1  11
ATOM     11  C   LIG    1        4.276   7.059  -0.001  0.00  0.00    +0.000 C 
BRANCH  11  12
ATOM     12  C   LIG    1        4.217   5.531  -0.009  0.00  0.00    +0.000 C 
BRANCH  12  13
ATOM     13  C   LIG    1        2.755   5.077   0.003  0.00  0.00    +0.001 C 
BRANCH  13  14
ATOM     14  C   LIG    1        2.696   3.548  -0.005  0.00  0.00    +0.011 C 
BRANCH  14  15
ATOM     15  C   LIG    1        1.235   3.094   0.007  0.00  0.00    +0.120 C 
BRANCH  15  16
ATOM     16  C   LIG    1        1.177   1.588  -0.001  0.00  0.00    +0.305 C 
ATOM     17  O   LIG    1        2.199   0.944  -0.014  0.00  0.00    -0.251 OA
BRANCH  16  18
ATOM     18  O   LIG    1       -0.011   0.963   0.007  0.00  0.00    -0.481 OA
ATOM     19  H   LIG    1       -0.804   1.462   0.018  0.00  0.00    +0.295 HD
ENDBRANCH  16  18
ENDBRANCH  15  16
ENDBRANCH  14  15
ENDBRANCH  13  14
ENDBRANCH  12  13
ENDBRANCH  11  12
ENDBRANCH   1  11
TORSDOF 15
