REMARK  Name = ZINC06524414
REMARK                            x       y       z     vdW  Elec       q    Type
REMARK                         _______ _______ _______ _____ _____    ______ ____
ROOT
ATOM      1  C   LIG    1        0.865  -1.702  -1.634  0.00  0.00    +0.031 A 
ATOM      2  C   LIG    1        1.803  -2.124  -2.561  0.00  0.00    +0.045 A 
ATOM      3 CL   LIG    1        1.620  -3.666  -3.336  0.00  0.00    -0.083 Cl
ATOM      4  C   LIG    1        2.886  -1.320  -2.871  0.00  0.00    +0.067 A 
ATOM      5  C   LIG    1        3.032  -0.086  -2.258  0.00  0.00    +0.140 A 
ATOM      6  C   LIG    1        2.087   0.340  -1.331  0.00  0.00    +0.086 A 
ATOM      7  N   LIG    1        2.203   1.593  -0.712  0.00  0.00    -0.247 N 
ATOM      8  H   LIG    1        3.023   2.104  -0.797  0.00  0.00    +0.158 HD
ATOM      9  C   LIG    1        1.170   2.083   0.002  0.00  0.00    +0.407 C 
ATOM     10  O   LIG    1        1.313   3.105   0.644  0.00  0.00    -0.226 OA
ATOM     11  O   LIG    1       -0.018   1.449   0.010  0.00  0.00    -0.417 OA
ATOM     12  C   LIG    1        0.002  -0.004   0.002  0.00  0.00    +0.296 C 
ATOM     13  C   LIG    1        1.008  -0.475  -1.018  0.00  0.00    +0.043 A 
ENDROOT
BRANCH  12  14
ATOM     14  C   LIG    1        0.396  -0.518   1.388  0.00  0.00    +0.446 C 
ATOM     15  F   LIG    1        0.414  -1.917   1.379  0.00  0.00    -0.165 F 
ATOM     16  F   LIG    1        1.667  -0.038   1.720  0.00  0.00    -0.165 F 
ATOM     17  F   LIG    1       -0.534  -0.071   2.333  0.00  0.00    -0.165 F 
ENDBRANCH  12  14
BRANCH   5  18
ATOM     18  O   LIG    1        4.096   0.705  -2.561  0.00  0.00    -0.505 OA
ATOM     19  H   LIG    1        4.870   0.556  -2.000  0.00  0.00    +0.292 HD
ENDBRANCH   5  18
BRANCH  12  20
ATOM     20  C   LIG    1       -1.333  -0.513  -0.351  0.00  0.00    -0.041 C 
ATOM     21  C   LIG    1       -2.398  -0.919  -0.633  0.00  0.00    -0.094 C 
BRANCH  21  22
ATOM     22  C   LIG    1       -3.733  -1.428  -0.986  0.00  0.00    +0.064 C 
ATOM     23  C   LIG    1       -4.558  -0.614  -1.985  0.00  0.00    +0.017 C 
ATOM     24  C   LIG    1       -4.945  -0.627  -0.504  0.00  0.00    +0.017 C 
ENDBRANCH  21  22
ENDBRANCH  12  20
TORSDOF 4
