REMARK  Name = ZINC05930916
REMARK                            x       y       z     vdW  Elec       q    Type
REMARK                         _______ _______ _______ _____ _____    ______ ____
ROOT
ATOM      1  C   LIG    1        0.014  -4.932   1.122  0.00  0.00    +0.085 C 
ATOM      2  C   LIG    1       -0.076  -4.322   2.327  0.00  0.00    +0.079 C 
ATOM      3  C   LIG    1       -0.125  -5.135   3.549  0.00  0.00    +0.197 C 
ATOM      4  C   LIG    1       -0.076  -6.588   3.454  0.00  0.00    +0.090 A 
ATOM      5  C   LIG    1        0.016  -7.256   2.233  0.00  0.00    +0.131 A 
ATOM      6  N   LIG    1        0.049  -8.585   2.346  0.00  0.00    -0.240 NA
ATOM      7  C   LIG    1       -0.001  -9.191   3.502  0.00  0.00    +0.077 A 
ATOM      8  C   LIG    1        0.027 -10.673   3.777  0.00  0.00    +0.073 C 
ATOM      9  S   LIG    1       -0.105  -7.931   4.613  0.00  0.00    -0.068 S 
ATOM     10  O   LIG    1       -0.206  -4.596   4.638  0.00  0.00    -0.287 OA
ATOM     11  C   LIG    1        0.058  -6.409   1.009  0.00  0.00    +0.226 C 
ATOM     12  O   LIG    1        0.134  -6.929  -0.085  0.00  0.00    -0.284 OA
ENDROOT
BRANCH   1  13
ATOM     13  N   LIG    1        0.059  -4.166  -0.021  0.00  0.00    -0.311 N 
ATOM     14  H   LIG    1       -0.641  -3.518  -0.198  0.00  0.00    +0.152 HD
BRANCH  13  19
ATOM     15  C   LIG    1        4.335  -4.795  -3.689  0.00  0.00    +0.044 C 
ATOM     16  C   LIG    1        3.199  -4.627  -2.714  0.00  0.00    -0.050 A 
ATOM     17  C   LIG    1        2.120  -3.826  -3.043  0.00  0.00    +0.005 A 
ATOM     18  C   LIG    1        1.076  -3.671  -2.152  0.00  0.00    +0.023 A 
ATOM     19  C   LIG    1        1.111  -4.321  -0.924  0.00  0.00    +0.031 A 
ATOM     20  C   LIG    1        2.196  -5.125  -0.597  0.00  0.00    +0.023 A 
ATOM     21  C   LIG    1        3.234  -5.280  -1.495  0.00  0.00    +0.005 A 
ENDBRANCH  13  19
ENDBRANCH   1  13
TORSDOF 2
