REMARK  Name = ZINC06746067
REMARK                            x       y       z     vdW  Elec       q    Type
REMARK                         _______ _______ _______ _____ _____    ______ ____
ROOT
ATOM      1  N   LIG    1        1.231  -4.434  -2.929  0.00  0.00    -0.269 N 
ATOM      2  H   LIG    1        1.139  -3.805  -3.662  0.00  0.00    +0.156 HD
ATOM      3  C   LIG    1        1.241  -3.991  -1.657  0.00  0.00    +0.304 C 
ATOM      4  N   LIG    1        1.238  -2.667  -1.405  0.00  0.00    -0.295 N 
ATOM      5  H   LIG    1        1.229  -2.033  -2.139  0.00  0.00    +0.151 HD
ATOM      6  O   LIG    1        1.253  -4.785  -0.736  0.00  0.00    -0.252 OA
ENDROOT
BRANCH   1  15
ATOM      7  C   LIG    1        2.094  -7.997  -2.540  0.00  0.00    +0.002 A 
ATOM      8  C   LIG    1        1.615  -8.546  -3.691  0.00  0.00    +0.010 A 
ATOM      9  C   LIG    1        0.981  -7.732  -4.641  0.00  0.00    +0.002 A 
ATOM     10  C   LIG    1        0.470  -8.250  -5.843  0.00  0.00    +0.119 A 
ATOM     11  N   LIG    1       -0.115  -7.450  -6.704  0.00  0.00    -0.263 NA
ATOM     12  C   LIG    1       -0.252  -6.148  -6.494  0.00  0.00    +0.111 A 
ATOM     13  C   LIG    1        0.209  -5.549  -5.361  0.00  0.00    +0.030 A 
ATOM     14  C   LIG    1        0.847  -6.342  -4.391  0.00  0.00    +0.006 A 
ATOM     15  C   LIG    1        1.352  -5.800  -3.194  0.00  0.00    +0.043 A 
ATOM     16  C   LIG    1        1.973  -6.634  -2.287  0.00  0.00    +0.024 A 
ENDBRANCH   1  15
BRANCH   4  17
ATOM     17  C   LIG    1        1.249  -2.185  -0.021  0.00  0.00    +0.141 C 
BRANCH  17  18
ATOM     18  C   LIG    1        1.243  -0.678  -0.014  0.00  0.00    -0.030 A 
ATOM     19  C   LIG    1        0.043   0.009  -0.000  0.00  0.00    +0.006 A 
ATOM     20  C   LIG    1        0.038   1.391   0.007  0.00  0.00    +0.013 A 
ATOM     21  C   LIG    1        1.232   2.087  -0.000  0.00  0.00    +0.055 A 
ATOM     22  C   LIG    1        2.432   1.400  -0.016  0.00  0.00    +0.013 A 
ATOM     23  C   LIG    1        2.438   0.018  -0.022  0.00  0.00    +0.006 A 
BRANCH  21  24
ATOM     24  C   LIG    1        1.227   3.594   0.007  0.00  0.00    +0.417 C 
ATOM     25  F   LIG    1        0.077   4.059  -0.640  0.00  0.00    -0.166 F 
ATOM     26  F   LIG    1        2.361   4.068  -0.660  0.00  0.00    -0.166 F 
ATOM     27  F   LIG    1        1.236   4.054   1.328  0.00  0.00    -0.166 F 
ENDBRANCH  21  24
ENDBRANCH  17  18
ENDBRANCH   4  17
TORSDOF 4
