REMARK  Name = ZINC08438450
REMARK                            x       y       z     vdW  Elec       q    Type
REMARK                         _______ _______ _______ _____ _____    ______ ____
ROOT
ATOM      1  C   LIG    1        5.667   2.569   0.333  0.00  0.00    +0.136 A 
ATOM      2  N   LIG    1        4.591   3.314   0.211  0.00  0.00    -0.233 NA
ATOM      3  C   LIG    1        3.342   2.803   0.288  0.00  0.00    +0.080 A 
ATOM      4  C   LIG    1        2.111   3.490   0.176  0.00  0.00    +0.031 A 
ATOM      5  C   LIG    1        0.921   2.819   0.279  0.00  0.00    +0.025 A 
ATOM      6  C   LIG    1        0.879   1.444   0.497  0.00  0.00    +0.035 A 
ATOM      7  C   LIG    1        2.071   0.741   0.618  0.00  0.00    +0.040 A 
ATOM      8  C   LIG    1        3.264   1.409   0.510  0.00  0.00    +0.042 A 
ATOM      9  S   LIG    1        4.976   0.941   0.590  0.00  0.00    -0.061 S 
ENDROOT
BRANCH   6  10
ATOM     10  N   LIG    1       -0.350   0.779   0.600  0.00  0.00    -0.285 N 
ATOM     11  H   LIG    1       -1.106   1.220   1.019  0.00  0.00    +0.155 HD
ATOM     12  C   LIG    1       -0.481  -0.474   0.121  0.00  0.00    +0.218 C 
ATOM     13  O   LIG    1        0.484  -1.055  -0.328  0.00  0.00    -0.275 OA
BRANCH  12  14
ATOM     14  C   LIG    1       -1.826  -1.152   0.143  0.00  0.00    +0.101 C 
BRANCH  14  15
ATOM     15  C   LIG    1       -1.699  -2.555  -0.454  0.00  0.00    +0.044 C 
BRANCH  15  16
ATOM     16  C   LIG    1       -3.045  -3.234  -0.432  0.00  0.00    -0.047 A 
ATOM     17  C   LIG    1       -3.420  -3.990   0.663  0.00  0.00    +0.003 A 
ATOM     18  C   LIG    1       -4.656  -4.609   0.685  0.00  0.00    +0.000 A 
ATOM     19  C   LIG    1       -5.513  -4.480  -0.392  0.00  0.00    +0.000 A 
ATOM     20  C   LIG    1       -5.136  -3.728  -1.489  0.00  0.00    +0.000 A 
ATOM     21  C   LIG    1       -3.902  -3.105  -1.509  0.00  0.00    +0.003 A 
ENDBRANCH  15  16
ENDBRANCH  14  15
ENDBRANCH  12  14
ENDBRANCH   6  10
BRANCH   1  22
ATOM     22  S   LIG    1        7.360   3.052   0.262  0.00  0.00    -0.094 S 
BRANCH  22  23
ATOM     23  C   LIG    1        7.168   4.830  -0.022  0.00  0.00    +0.112 C 
BRANCH  23  32
ATOM     24  C   LIG    1        8.473   5.050  -2.585  0.00  0.00    +0.044 C 
ATOM     25  C   LIG    1        9.153   5.579  -1.349  0.00  0.00    -0.046 A 
ATOM     26  C   LIG    1       10.402   6.168  -1.449  0.00  0.00    +0.007 A 
ATOM     27  C   LIG    1       11.031   6.655  -0.323  0.00  0.00    -0.039 A 
ATOM     28  C   LIG    1       12.390   7.295  -0.434  0.00  0.00    +0.044 C 
ATOM     29  C   LIG    1       10.404   6.551   0.923  0.00  0.00    +0.023 A 
ATOM     30  C   LIG    1        9.141   5.959   1.015  0.00  0.00    -0.036 A 
ATOM     31  C   LIG    1        8.454   5.848   2.352  0.00  0.00    +0.045 C 
ATOM     32  C   LIG    1        8.527   5.473  -0.120  0.00  0.00    -0.031 A 
BRANCH  29  33
ATOM     33  C   LIG    1       11.069   7.068   2.131  0.00  0.00    +0.161 C 
ATOM     34  C   LIG    1       11.883   6.142   2.998  0.00  0.00    +0.091 C 
ATOM     35  O   LIG    1       10.962   8.238   2.428  0.00  0.00    -0.292 OA
ENDBRANCH  29  33
ENDBRANCH  23  32
ENDBRANCH  22  23
ENDBRANCH   1  22
TORSDOF 8
