REMARK  Name = ZINC05974561
REMARK                            x       y       z     vdW  Elec       q    Type
REMARK                         _______ _______ _______ _____ _____    ______ ____
ROOT
ATOM      1  C   LIG    1        8.979  -3.654  -2.195  0.00  0.00    +0.042 C 
ENDROOT
BRANCH   1   2
ATOM      2  C   LIG    1       10.106  -2.656  -2.267  0.00  0.00    +0.039 C 
ATOM      3  C   LIG    1       10.555  -2.184  -3.484  0.00  0.00    +0.090 C 
ATOM      4  N   LIG    1       11.572  -1.282  -3.579  0.00  0.00    -0.289 NA
ATOM      5  H   LIG    1       11.215  -0.455  -4.058  0.00  0.00    +0.125 HD
ATOM      6  C   LIG    1       12.113  -0.881  -2.393  0.00  0.00    +0.192 C 
ATOM      7  N   LIG    1       11.711  -1.309  -1.206  0.00  0.00    -0.274 NA
ATOM      8  H   LIG    1       10.964  -1.970  -1.139  0.00  0.00    +0.126 HD
ATOM      9  C   LIG    1       10.717  -2.185  -1.103  0.00  0.00    +0.126 C 
BRANCH   6  10
ATOM     10  N   LIG    1       13.147   0.036  -2.466  0.00  0.00    -0.303 NA
ATOM     11  H   LIG    1       13.569   0.356  -1.654  0.00  0.00    +0.121 HD
ATOM     12  H   LIG    1       13.451   0.357  -3.330  0.00  0.00    +0.121 HD
ENDBRANCH   6  10
BRANCH   9  13
ATOM     13  N   LIG    1       10.296  -2.627   0.141  0.00  0.00    -0.315 NA
ATOM     14  H   LIG    1       10.726  -2.294   0.945  0.00  0.00    +0.120 HD
ATOM     15  H   LIG    1        9.572  -3.269   0.208  0.00  0.00    +0.120 HD
ENDBRANCH   9  13
ENDBRANCH   1   2
BRANCH   1  19
ATOM     16  C   LIG    1        5.287  -1.589  -1.586  0.00  0.00    +0.121 A 
ATOM     17  C   LIG    1        6.040  -2.003  -0.496  0.00  0.00    +0.046 A 
ATOM     18  C   LIG    1        7.229  -2.676  -0.696  0.00  0.00    +0.007 A 
ATOM     19  C   LIG    1        7.677  -2.925  -1.980  0.00  0.00    -0.047 A 
ATOM     20  C   LIG    1        6.931  -2.509  -3.068  0.00  0.00    +0.007 A 
ATOM     21  C   LIG    1        5.738  -1.841  -2.873  0.00  0.00    +0.046 A 
BRANCH  16  22
ATOM     22  O   LIG    1        4.113  -0.932  -1.392  0.00  0.00    -0.487 OA
BRANCH  22  23
ATOM     23  C   LIG    1        3.711  -0.707  -0.039  0.00  0.00    +0.264 C 
BRANCH  23  27
ATOM     24  C   LIG    1       -0.017   1.378   0.010  0.00  0.00    +0.000 A 
ATOM     25  C   LIG    1        1.171   2.086   0.002  0.00  0.00    +0.000 A 
ATOM     26  C   LIG    1        2.377   1.411  -0.014  0.00  0.00    +0.007 A 
ATOM     27  C   LIG    1        2.396   0.029  -0.022  0.00  0.00    -0.010 A 
ATOM     28  C   LIG    1        1.208  -0.679  -0.014  0.00  0.00    +0.007 A 
ATOM     29  C   LIG    1        0.002  -0.004   0.002  0.00  0.00    +0.000 A 
ENDBRANCH  23  27
ENDBRANCH  22  23
ENDBRANCH  16  22
ENDBRANCH   1  19
TORSDOF 7
