REMARK  Name = ZINC06261798
REMARK                            x       y       z     vdW  Elec       q    Type
REMARK                         _______ _______ _______ _____ _____    ______ ____
ROOT
ATOM      1  O   LIG    1        0.024   0.043   2.351  0.00  0.00    -0.312 OA
ENDROOT
BRANCH   1   4
ATOM      2  C   LIG    1       -0.018   1.503   0.010  0.00  0.00    +0.072 C 
ATOM      3  C   LIG    1        0.002  -0.004   0.002  0.00  0.00    +0.110 C 
ATOM      4  N   LIG    1        0.022  -0.658   1.121  0.00  0.00    -0.076 NA
BRANCH   3   5
ATOM      5  C   LIG    1       -0.000  -0.732  -1.275  0.00  0.00    +0.125 A 
ATOM      6  N   LIG    1       -0.012  -0.258  -2.515  0.00  0.00    -0.246 NA
ATOM      7  C   LIG    1       -0.012  -1.059  -3.550  0.00  0.00    +0.119 A 
ATOM      8  C   LIG    1        0.001  -2.409  -3.362  0.00  0.00    +0.067 A 
ATOM      9  S   LIG    1        0.021  -2.494  -1.576  0.00  0.00    -0.074 S 
ENDBRANCH   3   5
ENDBRANCH   1   4
BRANCH   1  10
ATOM     10  C   LIG    1        0.045  -0.754   3.436  0.00  0.00    +0.366 C 
ATOM     11  O   LIG    1        0.060  -1.962   3.303  0.00  0.00    -0.243 OA
BRANCH  10  12
ATOM     12  C   LIG    1        0.050  -0.161   4.788  0.00  0.00    +0.061 A 
ATOM     13  C   LIG    1        0.026   1.227   4.944  0.00  0.00    +0.018 A 
ATOM     14  C   LIG    1        0.031   1.775   6.209  0.00  0.00    +0.039 A 
ATOM     15  C   LIG    1        0.059   0.952   7.324  0.00  0.00    +0.123 A 
ATOM     16  F   LIG    1        0.064   1.495   8.562  0.00  0.00    -0.205 F 
ATOM     17  C   LIG    1        0.083  -0.427   7.175  0.00  0.00    +0.039 A 
ATOM     18  C   LIG    1        0.071  -0.986   5.915  0.00  0.00    +0.018 A 
ENDBRANCH  10  12
ENDBRANCH   1  10
TORSDOF 4
