REMARK  Name = ZINC05942897
REMARK                            x       y       z     vdW  Elec       q    Type
REMARK                         _______ _______ _______ _____ _____    ______ ____
ROOT
ATOM      1  C   LIG    1       -1.305   2.116   0.020  0.00  0.00    +0.255 C 
ATOM      2  N   LIG    1       -2.459   1.429   0.123  0.00  0.00    -0.234 N 
ATOM      3  C   LIG    1       -2.414   0.033   0.214  0.00  0.00    +0.055 A 
ATOM      4  C   LIG    1       -1.478  -0.688  -0.506  0.00  0.00    +0.025 A 
ATOM      5  C   LIG    1       -1.440  -2.067  -0.407  0.00  0.00    +0.002 A 
ATOM      6  C   LIG    1       -2.331  -2.735   0.411  0.00  0.00    +0.001 A 
ATOM      7  C   LIG    1       -3.270  -2.026   1.141  0.00  0.00    +0.017 A 
ATOM      8  C   LIG    1       -3.312  -0.647   1.046  0.00  0.00    +0.035 A 
ATOM      9  S   LIG    1       -4.498   0.286   1.964  0.00  0.00    -0.086 S 
ATOM     10  C   LIG    1       -4.724   1.712   0.947  0.00  0.00    +0.035 A 
ATOM     11  C   LIG    1       -5.922   2.403   0.955  0.00  0.00    +0.017 A 
ATOM     12  C   LIG    1       -6.076   3.518   0.148  0.00  0.00    +0.001 A 
ATOM     13  C   LIG    1       -5.036   3.937  -0.660  0.00  0.00    +0.002 A 
ATOM     14  C   LIG    1       -3.836   3.249  -0.672  0.00  0.00    +0.025 A 
ATOM     15  C   LIG    1       -3.670   2.131   0.131  0.00  0.00    +0.055 A 
ATOM     16  O   LIG    1       -0.251   1.521  -0.094  0.00  0.00    -0.269 OA
ENDROOT
BRANCH   1  22
ATOM     17  C   LIG    1        0.294   6.481  -1.796  0.00  0.00    +0.044 C 
ATOM     18  C   LIG    1       -0.550   5.697  -0.824  0.00  0.00    -0.050 A 
ATOM     19  C   LIG    1       -1.338   6.363   0.100  0.00  0.00    +0.003 A 
ATOM     20  C   LIG    1       -2.116   5.651   0.995  0.00  0.00    +0.001 A 
ATOM     21  C   LIG    1       -2.111   4.271   0.974  0.00  0.00    +0.013 A 
ATOM     22  C   LIG    1       -1.319   3.594   0.045  0.00  0.00    +0.038 A 
ATOM     23  C   LIG    1       -0.537   4.318  -0.857  0.00  0.00    +0.016 A 
ENDBRANCH   1  22
TORSDOF 1
