REMARK VINA RESULT:      -5.3      0.000      0.000
REMARK  Name = ZINC00000023
REMARK                            x       y       z     vdW  Elec       q    Type
REMARK                         _______ _______ _______ _____ _____    ______ ____
ROOT
ATOM      1  C   LIG    1       23.714  32.133  56.250  0.00  0.00    +0.258 C 
ENDROOT
BRANCH   1   2
ATOM      2  C   LIG    1       24.923  31.258  56.590  0.00  0.00    +0.135 C 
BRANCH   2   3
ATOM      3  O   LIG    1       24.889  30.919  57.977  0.00  0.00    -0.390 OA
ATOM      4  H   LIG    1       24.028  31.059  58.396  0.00  0.00    +0.210 HD
ENDBRANCH   2   3
BRANCH   2   5
ATOM      5  C   LIG    1       26.211  32.026  56.285  0.00  0.00    -0.047 C 
BRANCH   5   6
ATOM      6  N   LIG    1       26.074  32.715  54.995  0.00  0.00    +0.382 N 
ATOM      7  H   LIG    1       25.848  32.043  54.277  0.00  0.00    -0.085 HD
ATOM      8  H   LIG    1       25.339  33.403  55.056  0.00  0.00    -0.085 HD
BRANCH   6  10
ATOM      9  C   LIG    1       27.242  34.868  55.003  0.00  0.00    -0.014 C 
ATOM     10  C   LIG    1       27.341  33.380  54.659  0.00  0.00    -0.078 C 
ATOM     11  C   LIG    1       28.479  32.745  55.461  0.00  0.00    -0.014 C 
ENDBRANCH   6  10
ENDBRANCH   5   6
ENDBRANCH   2   5
ENDBRANCH   1   2
BRANCH   1  12
ATOM     12  O   LIG    1       23.104  31.656  55.050  0.00  0.00    -0.489 OA
BRANCH  12  13
ATOM     13  C   LIG    1       21.994  30.883  55.187  0.00  0.00    +0.124 A 
ATOM     14  C   LIG    1       20.825  31.431  55.698  0.00  0.00    +0.046 A 
ATOM     15  C   LIG    1       19.699  30.644  55.835  0.00  0.00    +0.004 A 
ATOM     16  C   LIG    1       19.734  29.312  55.464  0.00  0.00    +0.001 A 
ATOM     17  C   LIG    1       20.897  28.765  54.955  0.00  0.00    +0.007 A 
ATOM     18  C   LIG    1       22.026  29.549  54.810  0.00  0.00    -0.002 A 
BRANCH  18  19
ATOM     19  C   LIG    1       23.291  28.953  54.249  0.00  0.00    +0.065 C 
BRANCH  19  20
ATOM     20  C   LIG    1       23.904  28.026  55.267  0.00  0.00    -0.030 C 
ATOM     21  C   LIG    1       24.652  27.025  54.875  0.00  0.00    +0.004 C 
ENDBRANCH  19  20
ENDBRANCH  18  19
ENDBRANCH  12  13
ENDBRANCH   1  12
TORSDOF 9
