REMARK VINA RESULT:      -4.8      1.527      3.544
REMARK  Name = ZINC00000023
REMARK                            x       y       z     vdW  Elec       q    Type
REMARK                         _______ _______ _______ _____ _____    ______ ____
ROOT
ATOM      1  C   LIG    1       23.776  31.164  54.733  0.00  0.00    +0.258 C 
ENDROOT
BRANCH   1   2
ATOM      2  C   LIG    1       24.085  31.761  56.108  0.00  0.00    +0.135 C 
BRANCH   2   3
ATOM      3  O   LIG    1       23.623  33.112  56.155  0.00  0.00    -0.390 OA
ATOM      4  H   LIG    1       24.329  33.772  56.110  0.00  0.00    +0.210 HD
ENDBRANCH   2   3
BRANCH   2   5
ATOM      5  C   LIG    1       25.595  31.730  56.350  0.00  0.00    -0.047 C 
BRANCH   5   6
ATOM      6  N   LIG    1       26.287  32.314  55.194  0.00  0.00    +0.382 N 
ATOM      7  H   LIG    1       26.621  31.576  54.593  0.00  0.00    -0.085 HD
ATOM      8  H   LIG    1       25.649  32.903  54.682  0.00  0.00    -0.085 HD
BRANCH   6  10
ATOM      9  C   LIG    1       28.723  32.332  55.449  0.00  0.00    -0.014 C 
ATOM     10  C   LIG    1       27.427  33.117  55.660  0.00  0.00    -0.078 C 
ATOM     11  C   LIG    1       27.487  34.424  54.868  0.00  0.00    -0.014 C 
ENDBRANCH   6  10
ENDBRANCH   5   6
ENDBRANCH   2   5
ENDBRANCH   1   2
BRANCH   1  12
ATOM     12  O   LIG    1       22.444  31.513  54.351  0.00  0.00    -0.489 OA
BRANCH  12  13
ATOM     13  C   LIG    1       21.442  30.722  54.817  0.00  0.00    +0.124 A 
ATOM     14  C   LIG    1       21.536  29.342  54.703  0.00  0.00    +0.046 A 
ATOM     15  C   LIG    1       20.516  28.541  55.178  0.00  0.00    +0.004 A 
ATOM     16  C   LIG    1       19.402  29.112  55.765  0.00  0.00    +0.001 A 
ATOM     17  C   LIG    1       19.306  30.486  55.879  0.00  0.00    +0.007 A 
ATOM     18  C   LIG    1       20.326  31.293  55.411  0.00  0.00    -0.002 A 
BRANCH  18  19
ATOM     19  C   LIG    1       20.223  32.791  55.541  0.00  0.00    +0.065 C 
BRANCH  19  20
ATOM     20  C   LIG    1       18.773  33.197  55.532  0.00  0.00    -0.030 C 
ATOM     21  C   LIG    1       18.351  34.140  56.337  0.00  0.00    +0.004 C 
ENDBRANCH  19  20
ENDBRANCH  18  19
ENDBRANCH  12  13
ENDBRANCH   1  12
TORSDOF 9
