REMARK VINA RESULT:      -4.9      2.810      6.659
REMARK  Name = ZINC00000023
REMARK                            x       y       z     vdW  Elec       q    Type
REMARK                         _______ _______ _______ _____ _____    ______ ____
ROOT
ATOM      1  C   LIG    1       23.720  31.923  55.632  0.00  0.00    +0.258 C 
ENDROOT
BRANCH   1   2
ATOM      2  C   LIG    1       22.289  32.171  56.115  0.00  0.00    +0.135 C 
BRANCH   2   3
ATOM      3  O   LIG    1       21.429  32.337  54.986  0.00  0.00    -0.390 OA
ATOM      4  H   LIG    1       21.347  33.252  54.684  0.00  0.00    +0.210 HD
ENDBRANCH   2   3
BRANCH   2   5
ATOM      5  C   LIG    1       22.253  33.437  56.974  0.00  0.00    -0.047 C 
BRANCH   5   6
ATOM      6  N   LIG    1       22.036  34.607  56.112  0.00  0.00    +0.382 N 
ATOM      7  H   LIG    1       22.913  34.888  55.699  0.00  0.00    -0.085 HD
ATOM      8  H   LIG    1       21.381  34.370  55.382  0.00  0.00    -0.085 HD
BRANCH   6  10
ATOM      9  C   LIG    1       20.625  35.149  58.039  0.00  0.00    -0.014 C 
ATOM     10  C   LIG    1       21.496  35.713  56.915  0.00  0.00    -0.078 C 
ATOM     11  C   LIG    1       22.651  36.516  57.517  0.00  0.00    -0.014 C 
ENDBRANCH   6  10
ENDBRANCH   5   6
ENDBRANCH   2   5
ENDBRANCH   1   2
BRANCH   1  12
ATOM     12  O   LIG    1       24.616  32.785  56.336  0.00  0.00    -0.489 OA
BRANCH  12  13
ATOM     13  C   LIG    1       25.914  32.790  55.930  0.00  0.00    +0.124 A 
ATOM     14  C   LIG    1       26.534  31.602  55.572  0.00  0.00    +0.046 A 
ATOM     15  C   LIG    1       27.852  31.610  55.160  0.00  0.00    +0.004 A 
ATOM     16  C   LIG    1       28.553  32.801  55.104  0.00  0.00    +0.001 A 
ATOM     17  C   LIG    1       27.938  33.986  55.461  0.00  0.00    +0.007 A 
ATOM     18  C   LIG    1       26.617  33.984  55.868  0.00  0.00    -0.002 A 
BRANCH  18  19
ATOM     19  C   LIG    1       25.944  35.277  56.251  0.00  0.00    +0.065 C 
BRANCH  19  20
ATOM     20  C   LIG    1       26.510  36.402  55.424  0.00  0.00    -0.030 C 
ATOM     21  C   LIG    1       26.095  37.630  55.616  0.00  0.00    +0.004 C 
ENDBRANCH  19  20
ENDBRANCH  18  19
ENDBRANCH  12  13
ENDBRANCH   1  12
TORSDOF 9
