REMARK VINA RESULT:      -4.8      2.697      4.483
REMARK  Name = ZINC00000023
REMARK                            x       y       z     vdW  Elec       q    Type
REMARK                         _______ _______ _______ _____ _____    ______ ____
ROOT
ATOM      1  C   LIG    1       21.610  33.273  57.353  0.00  0.00    +0.258 C 
ENDROOT
BRANCH   1   2
ATOM      2  C   LIG    1       21.445  34.751  56.990  0.00  0.00    +0.135 C 
BRANCH   2   3
ATOM      3  O   LIG    1       21.509  34.901  55.571  0.00  0.00    -0.390 OA
ATOM      4  H   LIG    1       20.771  35.401  55.194  0.00  0.00    +0.210 HD
ENDBRANCH   2   3
BRANCH   2   5
ATOM      5  C   LIG    1       22.567  35.564  57.640  0.00  0.00    -0.047 C 
BRANCH   5   6
ATOM      6  N   LIG    1       23.702  35.659  56.713  0.00  0.00    +0.382 N 
ATOM      7  H   LIG    1       24.311  34.865  56.844  0.00  0.00    -0.085 HD
ATOM      8  H   LIG    1       23.361  35.669  55.763  0.00  0.00    -0.085 HD
BRANCH   6  10
ATOM      9  C   LIG    1       25.854  36.782  56.382  0.00  0.00    -0.014 C 
ATOM     10  C   LIG    1       24.449  36.896  56.978  0.00  0.00    -0.078 C 
ATOM     11  C   LIG    1       23.719  38.079  56.340  0.00  0.00    -0.014 C 
ENDBRANCH   6  10
ENDBRANCH   5   6
ENDBRANCH   2   5
ENDBRANCH   1   2
BRANCH   1  12
ATOM     12  O   LIG    1       22.941  32.854  57.047  0.00  0.00    -0.489 OA
BRANCH  12  13
ATOM     13  C   LIG    1       23.100  32.045  55.966  0.00  0.00    +0.124 A 
ATOM     14  C   LIG    1       22.001  31.403  55.411  0.00  0.00    +0.046 A 
ATOM     15  C   LIG    1       22.165  30.583  54.313  0.00  0.00    +0.004 A 
ATOM     16  C   LIG    1       23.422  30.401  53.765  0.00  0.00    +0.001 A 
ATOM     17  C   LIG    1       24.518  31.039  54.316  0.00  0.00    +0.007 A 
ATOM     18  C   LIG    1       24.359  31.865  55.412  0.00  0.00    -0.002 A 
BRANCH  18  19
ATOM     19  C   LIG    1       25.553  32.565  56.009  0.00  0.00    +0.065 C 
BRANCH  19  20
ATOM     20  C   LIG    1       26.682  32.568  55.012  0.00  0.00    -0.030 C 
ATOM     21  C   LIG    1       27.235  33.700  54.651  0.00  0.00    +0.004 C 
ENDBRANCH  19  20
ENDBRANCH  18  19
ENDBRANCH  12  13
ENDBRANCH   1  12
TORSDOF 9
