REMARK VINA RESULT:      -4.4      2.222      2.531
REMARK  Name = ZINC00000138
REMARK                            x       y       z     vdW  Elec       q    Type
REMARK                         _______ _______ _______ _____ _____    ______ ____
ROOT
ATOM      1  C   LIG    1       22.669  28.073  57.737  0.00  0.00    +0.001 A 
ATOM      2  C   LIG    1       22.881  29.049  58.696  0.00  0.00    +0.004 A 
ATOM      3  C   LIG    1       23.275  30.323  58.330  0.00  0.00    +0.046 A 
ATOM      4  C   LIG    1       23.460  30.626  56.993  0.00  0.00    +0.135 A 
ATOM      5  C   LIG    1       23.246  29.638  56.020  0.00  0.00    +0.078 A 
ATOM      6  C   LIG    1       23.454  30.000  54.603  0.00  0.00    +0.250 C 
ATOM      7  N   LIG    1       24.125  31.146  54.337  0.00  0.00    -0.276 N 
ATOM      8  H   LIG    1       24.239  31.439  53.420  0.00  0.00    +0.152 HD
ATOM      9  C   LIG    1       24.676  31.944  55.433  0.00  0.00    +0.263 C 
ATOM     10  O   LIG    1       23.038  29.292  53.705  0.00  0.00    -0.270 OA
ATOM     11  O   LIG    1       23.846  31.861  56.591  0.00  0.00    -0.470 OA
ATOM     12  C   LIG    1       22.850  28.359  56.399  0.00  0.00    +0.017 A 
ENDROOT
BRANCH   9  13
ATOM     13  C   LIG    1       26.074  31.425  55.779  0.00  0.00    +0.081 C 
BRANCH  13  14
ATOM     14  C   LIG    1       27.092  32.556  55.619  0.00  0.00    +0.114 C 
ATOM     15 CL   LIG    1       28.712  31.858  55.246  0.00  0.00    -0.125 Cl
ENDBRANCH  13  14
ENDBRANCH   9  13
TORSDOF 2
