REMARK VINA RESULT:      -4.5      3.755      5.234
REMARK  Name = ZINC00000138
REMARK                            x       y       z     vdW  Elec       q    Type
REMARK                         _______ _______ _______ _____ _____    ______ ____
ROOT
ATOM      1  C   LIG    1       24.665  31.988  56.236  0.00  0.00    +0.001 A 
ATOM      2  C   LIG    1       25.295  30.759  56.339  0.00  0.00    +0.004 A 
ATOM      3  C   LIG    1       24.677  29.611  55.878  0.00  0.00    +0.046 A 
ATOM      4  C   LIG    1       23.418  29.690  55.309  0.00  0.00    +0.135 A 
ATOM      5  C   LIG    1       22.779  30.935  55.205  0.00  0.00    +0.078 A 
ATOM      6  C   LIG    1       21.436  30.979  54.593  0.00  0.00    +0.250 C 
ATOM      7  N   LIG    1       20.770  29.809  54.448  0.00  0.00    -0.276 N 
ATOM      8  H   LIG    1       19.907  29.794  54.007  0.00  0.00    +0.152 HD
ATOM      9  C   LIG    1       21.353  28.567  54.954  0.00  0.00    +0.263 C 
ATOM     10  O   LIG    1       20.944  32.032  54.230  0.00  0.00    -0.270 OA
ATOM     11  O   LIG    1       22.777  28.590  54.846  0.00  0.00    -0.470 OA
ATOM     12  C   LIG    1       23.410  32.085  55.672  0.00  0.00    +0.017 A 
ENDROOT
BRANCH   9  13
ATOM     13  C   LIG    1       20.965  28.391  56.424  0.00  0.00    +0.081 C 
BRANCH  13  14
ATOM     14  C   LIG    1       20.271  27.040  56.611  0.00  0.00    +0.114 C 
ATOM     15 CL   LIG    1       18.948  26.871  55.398  0.00  0.00    -0.125 Cl
ENDBRANCH  13  14
ENDBRANCH   9  13
TORSDOF 2
