REMARK VINA RESULT:      -5.1      0.000      0.000
REMARK  Name = ZINC00000138
REMARK                            x       y       z     vdW  Elec       q    Type
REMARK                         _______ _______ _______ _____ _____    ______ ____
ROOT
ATOM      1  C   LIG    1       22.300  28.679  54.674  0.00  0.00    +0.001 A 
ATOM      2  C   LIG    1       23.448  28.010  55.068  0.00  0.00    +0.004 A 
ATOM      3  C   LIG    1       24.471  28.685  55.707  0.00  0.00    +0.046 A 
ATOM      4  C   LIG    1       24.350  30.040  55.956  0.00  0.00    +0.135 A 
ATOM      5  C   LIG    1       23.188  30.719  55.558  0.00  0.00    +0.078 A 
ATOM      6  C   LIG    1       23.095  32.166  55.841  0.00  0.00    +0.250 C 
ATOM      7  N   LIG    1       24.233  32.815  56.182  0.00  0.00    -0.276 N 
ATOM      8  H   LIG    1       24.202  33.755  56.420  0.00  0.00    +0.152 HD
ATOM      9  C   LIG    1       25.510  32.101  56.192  0.00  0.00    +0.263 C 
ATOM     10  O   LIG    1       22.032  32.754  55.770  0.00  0.00    -0.270 OA
ATOM     11  O   LIG    1       25.329  30.739  56.579  0.00  0.00    -0.470 OA
ATOM     12  C   LIG    1       22.163  30.031  54.915  0.00  0.00    +0.017 A 
ENDROOT
BRANCH   9  13
ATOM     13  C   LIG    1       26.123  32.148  54.791  0.00  0.00    +0.081 C 
BRANCH  13  14
ATOM     14  C   LIG    1       27.565  32.655  54.882  0.00  0.00    +0.114 C 
ATOM     15 CL   LIG    1       27.595  34.433  54.585  0.00  0.00    -0.125 Cl
ENDBRANCH  13  14
ENDBRANCH   9  13
TORSDOF 2
