REMARK VINA RESULT:      -4.8      2.785      4.495
REMARK  Name = ZINC00000138
REMARK                            x       y       z     vdW  Elec       q    Type
REMARK                         _______ _______ _______ _____ _____    ______ ____
ROOT
ATOM      1  C   LIG    1       27.734  33.107  54.582  0.00  0.00    +0.001 A 
ATOM      2  C   LIG    1       27.940  33.137  55.951  0.00  0.00    +0.004 A 
ATOM      3  C   LIG    1       27.005  32.598  56.816  0.00  0.00    +0.046 A 
ATOM      4  C   LIG    1       25.853  32.022  56.310  0.00  0.00    +0.135 A 
ATOM      5  C   LIG    1       25.644  31.992  54.922  0.00  0.00    +0.078 A 
ATOM      6  C   LIG    1       24.402  31.369  54.420  0.00  0.00    +0.250 C 
ATOM      7  N   LIG    1       23.406  31.143  55.309  0.00  0.00    -0.276 N 
ATOM      8  H   LIG    1       22.595  30.694  55.024  0.00  0.00    +0.152 HD
ATOM      9  C   LIG    1       23.552  31.576  56.698  0.00  0.00    +0.263 C 
ATOM     10  O   LIG    1       24.278  31.069  53.247  0.00  0.00    -0.270 OA
ATOM     11  O   LIG    1       24.912  31.483  57.121  0.00  0.00    -0.470 OA
ATOM     12  C   LIG    1       26.591  32.537  54.060  0.00  0.00    +0.017 A 
ENDROOT
BRANCH   9  13
ATOM     13  C   LIG    1       23.084  33.027  56.825  0.00  0.00    +0.081 C 
BRANCH  13  14
ATOM     14  C   LIG    1       21.684  33.167  56.223  0.00  0.00    +0.114 C 
ATOM     15 CL   LIG    1       21.212  34.907  56.199  0.00  0.00    -0.125 Cl
ENDBRANCH  13  14
ENDBRANCH   9  13
TORSDOF 2
