REMARK VINA RESULT:      -4.6      2.130      3.475
REMARK  Name = ZINC00000138
REMARK                            x       y       z     vdW  Elec       q    Type
REMARK                         _______ _______ _______ _____ _____    ______ ____
ROOT
ATOM      1  C   LIG    1       21.151  33.104  58.174  0.00  0.00    +0.001 A 
ATOM      2  C   LIG    1       20.879  33.419  56.853  0.00  0.00    +0.004 A 
ATOM      3  C   LIG    1       21.662  32.910  55.833  0.00  0.00    +0.046 A 
ATOM      4  C   LIG    1       22.726  32.079  56.133  0.00  0.00    +0.135 A 
ATOM      5  C   LIG    1       23.002  31.759  57.472  0.00  0.00    +0.078 A 
ATOM      6  C   LIG    1       24.146  30.869  57.753  0.00  0.00    +0.250 C 
ATOM      7  N   LIG    1       25.041  30.659  56.758  0.00  0.00    -0.276 N 
ATOM      8  H   LIG    1       25.779  30.044  56.892  0.00  0.00    +0.152 HD
ATOM      9  C   LIG    1       24.895  31.359  55.482  0.00  0.00    +0.263 C 
ATOM     10  O   LIG    1       24.281  30.342  58.841  0.00  0.00    -0.270 OA
ATOM     11  O   LIG    1       23.518  31.560  55.165  0.00  0.00    -0.470 OA
ATOM     12  C   LIG    1       22.208  32.277  58.491  0.00  0.00    +0.017 A 
ENDROOT
BRANCH   9  13
ATOM     13  C   LIG    1       25.593  32.718  55.571  0.00  0.00    +0.081 C 
BRANCH  13  14
ATOM     14  C   LIG    1       26.778  32.748  54.602  0.00  0.00    +0.114 C 
ATOM     15 CL   LIG    1       27.592  34.354  54.700  0.00  0.00    -0.125 Cl
ENDBRANCH  13  14
ENDBRANCH   9  13
TORSDOF 2
